<?xml version="1.0" encoding="UTF-8"?>

<!-- generated on 2024-01-31 22:35:24 by Eclipse SUMO netedit Version 1.18.0
<configuration xmlns:xsi="http://www.w3.org/2001/XMLSchema-instance" xsi:noNamespaceSchemaLocation="http://sumo.dlr.de/xsd/neteditConfiguration.xsd">

    <input>
        <sumo-net-file value="D:\Paper Publish\MARL_TSC\MARL_TSC_code\scenarios\h_intersection\h.net.xml"/>
    </input>

    <output>
        <output-file value="D:\Paper Publish\MARL_TSC\MARL_TSC_code\scenarios\h_intersection\h.net.xml"/>
    </output>

    <processing>
        <geometry.min-radius.fix.railways value="false"/>
        <geometry.max-grade.fix value="false"/>
        <offset.disable-normalization value="true"/>
        <lefthand value="0"/>
    </processing>

    <junctions>
        <no-turnarounds value="true"/>
        <junctions.corner-detail value="5"/>
        <junctions.limit-turn-speed value="5.50"/>
        <rectangular-lane-cut value="0"/>
    </junctions>

    <pedestrian>
        <walkingareas value="0"/>
    </pedestrian>

</configuration>
-->

<net version="1.16" junctionCornerDetail="5" limitTurnSpeed="5.50" xmlns:xsi="http://www.w3.org/2001/XMLSchema-instance" xsi:noNamespaceSchemaLocation="http://sumo.dlr.de/xsd/net_file.xsd">

    <location netOffset="0.00,500.00" convBoundary="0.00,0.00,1000.00,1000.00" origBoundary="0.00,-500.00,1000.00,500.00" projParameter="!"/>

    <edge id=":h2_0" function="internal">
        <lane id=":h2_0_0" index="0" speed="6.51" length="9.03" shape="492.00,513.60 491.65,511.15 490.60,509.40 488.85,508.35 486.40,508.00"/>
    </edge>
    <edge id=":h2_1" function="internal">
        <lane id=":h2_1_0" index="0" speed="20.00" length="27.20" shape="495.20,513.60 495.20,486.40"/>
    </edge>
    <edge id=":h2_2" function="internal">
        <lane id=":h2_2_0" index="0" speed="10.36" length="12.07" shape="498.40,513.60 499.35,506.95 502.10,502.36"/>
    </edge>
    <edge id=":h2_12" function="internal">
        <lane id=":h2_12_0" index="0" speed="10.36" length="12.44" shape="502.10,502.36 502.20,502.20 506.95,499.35 513.60,498.40"/>
    </edge>
    <edge id=":h2_3" function="internal">
        <lane id=":h2_3_0" index="0" speed="6.51" length="9.03" shape="513.60,508.00 511.15,508.35 509.40,509.40 508.35,511.15 508.00,513.60"/>
    </edge>
    <edge id=":h2_4" function="internal">
        <lane id=":h2_4_0" index="0" speed="20.00" length="27.20" shape="513.60,504.80 486.40,504.80"/>
    </edge>
    <edge id=":h2_5" function="internal">
        <lane id=":h2_5_0" index="0" speed="10.36" length="12.07" shape="513.60,501.60 506.95,500.65 502.36,497.90"/>
    </edge>
    <edge id=":h2_13" function="internal">
        <lane id=":h2_13_0" index="0" speed="10.36" length="12.44" shape="502.36,497.90 502.20,497.80 499.35,493.05 498.40,486.40"/>
    </edge>
    <edge id=":h2_6" function="internal">
        <lane id=":h2_6_0" index="0" speed="6.51" length="9.03" shape="508.00,486.40 508.35,488.85 509.40,490.60 511.15,491.65 513.60,492.00"/>
    </edge>
    <edge id=":h2_7" function="internal">
        <lane id=":h2_7_0" index="0" speed="20.00" length="27.20" shape="504.80,486.40 504.80,513.60"/>
    </edge>
    <edge id=":h2_8" function="internal">
        <lane id=":h2_8_0" index="0" speed="10.36" length="12.07" shape="501.60,486.40 500.65,493.05 497.90,497.64"/>
    </edge>
    <edge id=":h2_14" function="internal">
        <lane id=":h2_14_0" index="0" speed="10.36" length="12.44" shape="497.90,497.64 497.80,497.80 493.05,500.65 486.40,501.60"/>
    </edge>
    <edge id=":h2_9" function="internal">
        <lane id=":h2_9_0" index="0" speed="6.51" length="9.03" shape="486.40,492.00 488.85,491.65 490.60,490.60 491.65,488.85 492.00,486.40"/>
    </edge>
    <edge id=":h2_10" function="internal">
        <lane id=":h2_10_0" index="0" speed="20.00" length="27.20" shape="486.40,495.20 513.60,495.20"/>
    </edge>
    <edge id=":h2_11" function="internal">
        <lane id=":h2_11_0" index="0" speed="10.36" length="12.07" shape="486.40,498.40 493.05,499.35 497.64,502.10"/>
    </edge>
    <edge id=":h2_15" function="internal">
        <lane id=":h2_15_0" index="0" speed="10.36" length="12.44" shape="497.64,502.10 497.80,502.20 500.65,506.95 501.60,513.60"/>
    </edge>

    <edge id="e1" from="h1" to="h2" priority="-1">
        <lane id="e1_0" index="0" speed="20.00" length="486.40" shape="0.00,492.00 486.40,492.00"/>
        <lane id="e1_1" index="1" speed="20.00" length="486.40" shape="0.00,495.20 486.40,495.20"/>
        <lane id="e1_2" index="2" speed="20.00" length="486.40" shape="0.00,498.40 486.40,498.40"/>
    </edge>
    <edge id="e2" from="h2" to="h3" priority="-1">
        <lane id="e2_0" index="0" speed="20.00" length="486.40" shape="513.60,492.00 1000.00,492.00"/>
        <lane id="e2_1" index="1" speed="20.00" length="486.40" shape="513.60,495.20 1000.00,495.20"/>
        <lane id="e2_2" index="2" speed="20.00" length="486.40" shape="513.60,498.40 1000.00,498.40"/>
    </edge>
    <edge id="hn2" from="h2" to="n2" priority="-1">
        <lane id="hn2_0" index="0" speed="20.00" length="486.40" shape="508.00,513.60 508.00,1000.00"/>
        <lane id="hn2_1" index="1" speed="20.00" length="486.40" shape="504.80,513.60 504.80,1000.00"/>
        <lane id="hn2_2" index="2" speed="20.00" length="486.40" shape="501.60,513.60 501.60,1000.00"/>
    </edge>
    <edge id="hs2" from="h2" to="s2" priority="-1">
        <lane id="hs2_0" index="0" speed="20.00" length="486.40" shape="492.00,486.40 492.00,0.00"/>
        <lane id="hs2_1" index="1" speed="20.00" length="486.40" shape="495.20,486.40 495.20,0.00"/>
        <lane id="hs2_2" index="2" speed="20.00" length="486.40" shape="498.40,486.40 498.40,0.00"/>
    </edge>
    <edge id="nh2" from="n2" to="h2" priority="-1">
        <lane id="nh2_0" index="0" speed="20.00" length="486.40" shape="492.00,1000.00 492.00,513.60"/>
        <lane id="nh2_1" index="1" speed="20.00" length="486.40" shape="495.20,1000.00 495.20,513.60"/>
        <lane id="nh2_2" index="2" speed="20.00" length="486.40" shape="498.40,1000.00 498.40,513.60"/>
    </edge>
    <edge id="sh2" from="s2" to="h2" priority="-1">
        <lane id="sh2_0" index="0" speed="20.00" length="486.40" shape="508.00,0.00 508.00,486.40"/>
        <lane id="sh2_1" index="1" speed="20.00" length="486.40" shape="504.80,0.00 504.80,486.40"/>
        <lane id="sh2_2" index="2" speed="20.00" length="486.40" shape="501.60,0.00 501.60,486.40"/>
    </edge>
    <edge id="w1" from="h2" to="h1" priority="-1">
        <lane id="w1_0" index="0" speed="20.00" length="486.40" shape="486.40,508.00 0.00,508.00"/>
        <lane id="w1_1" index="1" speed="20.00" length="486.40" shape="486.40,504.80 0.00,504.80"/>
        <lane id="w1_2" index="2" speed="20.00" length="486.40" shape="486.40,501.60 0.00,501.60"/>
    </edge>
    <edge id="w2" from="h3" to="h2" priority="-1">
        <lane id="w2_0" index="0" speed="20.00" length="486.40" shape="1000.00,508.00 513.60,508.00"/>
        <lane id="w2_1" index="1" speed="20.00" length="486.40" shape="1000.00,504.80 513.60,504.80"/>
        <lane id="w2_2" index="2" speed="20.00" length="486.40" shape="1000.00,501.60 513.60,501.60"/>
    </edge>

    <tlLogic id="h2" type="static" programID="0" offset="0">
        <phase duration="29" state="GGrGrrGGrGrr"/>
        <phase duration="5"  state="yyryrryyryrr"/>
        <phase duration="6"  state="rrGrrrrrGrrr"/>
        <phase duration="5"  state="rryrrrrryrrr"/>
        <phase duration="29" state="GrrGGrGrrGGr"/>
        <phase duration="5"  state="yrryyryrryyr"/>
        <phase duration="6"  state="rrrrrGrrrrrG"/>
        <phase duration="5"  state="rrrrryrrrrry"/>
    </tlLogic>

    <junction id="h1" type="dead_end" x="0.00" y="500.00" incLanes="w1_0 w1_1 w1_2" intLanes="" shape="0.00,500.00 0.00,509.60 0.00,500.00"/>
    <junction id="h2" type="traffic_light" x="500.00" y="500.00" incLanes="nh2_0 nh2_1 nh2_2 w2_0 w2_1 w2_2 sh2_0 sh2_1 sh2_2 e1_0 e1_1 e1_2" intLanes=":h2_0_0 :h2_1_0 :h2_12_0 :h2_3_0 :h2_4_0 :h2_13_0 :h2_6_0 :h2_7_0 :h2_14_0 :h2_9_0 :h2_10_0 :h2_15_0" shape="490.40,513.60 509.60,513.60 510.04,511.38 510.60,510.60 511.38,510.04 512.38,509.71 513.60,509.60 513.60,490.40 511.38,489.96 510.60,489.40 510.04,488.62 509.71,487.62 509.60,486.40 490.40,486.40 489.96,488.62 489.40,489.40 488.62,489.96 487.62,490.29 486.40,490.40 486.40,509.60 488.62,510.04 489.40,510.60 489.96,511.38 490.29,512.38" rightOfWay="allwayStop">
        <request index="0"  response="000000000000" foes="000000000000" cont="0"/>
        <request index="1"  response="100000000000" foes="110100010000" cont="0"/>
        <request index="2"  response="100010100000" foes="100010110000" cont="1"/>
        <request index="3"  response="000000000000" foes="000000000000" cont="0"/>
        <request index="4"  response="000010000110" foes="100010000110" cont="0"/>
        <request index="5"  response="010110000100" foes="010110000100" cont="1"/>
        <request index="6"  response="000000000000" foes="000000000000" cont="0"/>
        <request index="7"  response="000000100000" foes="010000110100" cont="0"/>
        <request index="8"  response="100000100010" foes="110000100010" cont="1"/>
        <request index="9"  response="000000000000" foes="000000000000" cont="0"/>
        <request index="10" response="000110000010" foes="000110100010" cont="0"/>
        <request index="11" response="000100010110" foes="000100010110" cont="1"/>
    </junction>
    <junction id="h3" type="dead_end" x="1000.00" y="500.00" incLanes="e2_0 e2_1 e2_2" intLanes="" shape="1000.00,500.00 1000.00,490.40 1000.00,500.00"/>
    <junction id="n2" type="dead_end" x="500.00" y="1000.00" incLanes="hn2_0 hn2_1 hn2_2" intLanes="" shape="500.00,1000.00 509.60,1000.00 500.00,1000.00"/>
    <junction id="s2" type="dead_end" x="500.00" y="0.00" incLanes="hs2_0 hs2_1 hs2_2" intLanes="" shape="500.00,0.00 490.40,0.00 500.00,0.00"/>

    <junction id=":h2_12_0" type="internal" x="502.10" y="502.36" incLanes=":h2_2_0 sh2_1" intLanes=":h2_4_0 :h2_5_0 :h2_7_0 :h2_11_0"/>
    <junction id=":h2_13_0" type="internal" x="502.36" y="497.90" incLanes=":h2_5_0 e1_1" intLanes=":h2_2_0 :h2_7_0 :h2_8_0 :h2_10_0"/>
    <junction id=":h2_14_0" type="internal" x="497.90" y="497.64" incLanes=":h2_8_0 nh2_1" intLanes=":h2_1_0 :h2_5_0 :h2_10_0 :h2_11_0"/>
    <junction id=":h2_15_0" type="internal" x="497.64" y="502.10" incLanes=":h2_11_0 w2_1" intLanes=":h2_1_0 :h2_2_0 :h2_4_0 :h2_8_0"/>

    <connection from="e1" to="hs2" fromLane="0" toLane="0" via=":h2_9_0" tl="h2" linkIndex="9" dir="r" state="w"/>
    <connection from="e1" to="e2" fromLane="1" toLane="1" via=":h2_10_0" tl="h2" linkIndex="10" dir="s" state="w"/>
    <connection from="e1" to="hn2" fromLane="2" toLane="2" via=":h2_11_0" tl="h2" linkIndex="11" dir="l" state="w"/>
    <connection from="nh2" to="w1" fromLane="0" toLane="0" via=":h2_0_0" tl="h2" linkIndex="0" dir="r" state="w"/>
    <connection from="nh2" to="hs2" fromLane="1" toLane="1" via=":h2_1_0" tl="h2" linkIndex="1" dir="s" state="w"/>
    <connection from="nh2" to="e2" fromLane="2" toLane="2" via=":h2_2_0" tl="h2" linkIndex="2" dir="l" state="w"/>
    <connection from="sh2" to="e2" fromLane="0" toLane="0" via=":h2_6_0" tl="h2" linkIndex="6" dir="r" state="w"/>
    <connection from="sh2" to="hn2" fromLane="1" toLane="1" via=":h2_7_0" tl="h2" linkIndex="7" dir="s" state="w"/>
    <connection from="sh2" to="w1" fromLane="2" toLane="2" via=":h2_8_0" tl="h2" linkIndex="8" dir="l" state="w"/>
    <connection from="w2" to="hn2" fromLane="0" toLane="0" via=":h2_3_0" tl="h2" linkIndex="3" dir="r" state="w"/>
    <connection from="w2" to="w1" fromLane="1" toLane="1" via=":h2_4_0" tl="h2" linkIndex="4" dir="s" state="w"/>
    <connection from="w2" to="hs2" fromLane="2" toLane="2" via=":h2_5_0" tl="h2" linkIndex="5" dir="l" state="w"/>

    <connection from=":h2_0" to="w1" fromLane="0" toLane="0" dir="r" state="M"/>
    <connection from=":h2_1" to="hs2" fromLane="0" toLane="1" dir="s" state="M"/>
    <connection from=":h2_2" to="e2" fromLane="0" toLane="2" via=":h2_12_0" dir="l" state="m"/>
    <connection from=":h2_12" to="e2" fromLane="0" toLane="2" dir="l" state="M"/>
    <connection from=":h2_3" to="hn2" fromLane="0" toLane="0" dir="r" state="M"/>
    <connection from=":h2_4" to="w1" fromLane="0" toLane="1" dir="s" state="M"/>
    <connection from=":h2_5" to="hs2" fromLane="0" toLane="2" via=":h2_13_0" dir="l" state="m"/>
    <connection from=":h2_13" to="hs2" fromLane="0" toLane="2" dir="l" state="M"/>
    <connection from=":h2_6" to="e2" fromLane="0" toLane="0" dir="r" state="M"/>
    <connection from=":h2_7" to="hn2" fromLane="0" toLane="1" dir="s" state="M"/>
    <connection from=":h2_8" to="w1" fromLane="0" toLane="2" via=":h2_14_0" dir="l" state="m"/>
    <connection from=":h2_14" to="w1" fromLane="0" toLane="2" dir="l" state="M"/>
    <connection from=":h2_9" to="hs2" fromLane="0" toLane="0" dir="r" state="M"/>
    <connection from=":h2_10" to="e2" fromLane="0" toLane="1" dir="s" state="M"/>
    <connection from=":h2_11" to="hn2" fromLane="0" toLane="2" via=":h2_15_0" dir="l" state="m"/>
    <connection from=":h2_15" to="hn2" fromLane="0" toLane="2" dir="l" state="M"/>

</net>
