<nodes>
    <node id="h1" x="0.0" y="0.0" />
    <node id="h2" x="500.0" y="0.0" />
    <node id="h3" x="1000.0" y="0.0" />

    <node id="n2" x="500.0" y="500.0" />
    <node id="s2" x="500.0" y="-500.0" />
</nodes>
