<?xml version="1.0" encoding="UTF-8"?>

<!-- generated on 2023-11-23 18:05:37.690445 by routeSampler.py v1_18_0+0000-03ecfdea036
<configuration>
    <route-files value="h_intersection/h.rou.xml"/>
    <turn-ratio-files value="h_intersection/h.turn.xml"/>
    <edgedata-files value="h_intersection/h.enter.xml"/>
    <output-file value="h_intersection/sample-400.rou.xml"/>
    <attributes value="departLane=&quot;best&quot; departSpeed=&quot;max&quot;"/>
    <write-flows value="probability"/>
    <write-route-ids value="True"/>
</configuration>
-->

<routes xmlns:xsi="http://www.w3.org/2001/XMLSchema-instance" xsi:noNamespaceSchemaLocation="http://sumo.dlr.de/xsd/routes_file.xsd">
<!-- begin="0.0" end="3600.0" -->
    <route id="0" edges="e1 e2"/> <!-- 523 -->
    <route id="1" edges="e1 hn2"/> <!-- 71 -->
    <route id="2" edges="e1 hs2"/> <!-- 106 -->
    <route id="3" edges="nh2 e2"/> <!-- 71 -->
    <route id="4" edges="nh2 hs2"/> <!-- 523 -->
    <route id="5" edges="nh2 w1"/> <!-- 106 -->
    <route id="6" edges="sh2 e2"/> <!-- 106 -->
    <route id="7" edges="sh2 hn2"/> <!-- 523 -->
    <route id="8" edges="sh2 w1"/> <!-- 71 -->
    <route id="9" edges="w2 hn2"/> <!-- 106 -->
    <route id="10" edges="w2 hs2"/> <!-- 71 -->
    <route id="11" edges="w2 w1"/> <!-- 523 -->

    <flow id="0" begin="0.00" end="3597.43" probability="0.1454" route="0" departLane="best" departSpeed="max"/>
    <flow id="4" begin="1.29" end="3598.71" probability="0.1454" route="4" departLane="best" departSpeed="max"/>
    <flow id="1" begin="3.86" end="3566.57" probability="0.0199" route="1" departLane="best" departSpeed="max"/>
    <flow id="7" begin="5.14" end="3593.57" probability="0.1457" route="7" departLane="best" departSpeed="max"/>
    <flow id="8" begin="6.43" end="3557.57" probability="0.0200" route="8" departLane="best" departSpeed="max"/>
    <flow id="11" begin="9.00" end="3578.14" probability="0.1465" route="11" departLane="best" departSpeed="max"/>
    <flow id="3" begin="16.71" end="3571.71" probability="0.0200" route="3" departLane="best" departSpeed="max"/>
    <flow id="9" begin="25.71" end="3556.29" probability="0.0300" route="9" departLane="best" departSpeed="max"/>
    <flow id="5" begin="33.43" end="3558.86" probability="0.0301" route="5" departLane="best" departSpeed="max"/>
    <flow id="2" begin="72.00" end="3567.86" probability="0.0303" route="2" departLane="best" departSpeed="max"/>
    <flow id="6" begin="83.57" end="3594.86" probability="0.0302" route="6" departLane="best" departSpeed="max"/>
    <flow id="10" begin="113.14" end="3592.29" probability="0.0204" route="10" departLane="best" departSpeed="max"/>
</routes>
