<?xml version="1.0" encoding="UTF-8"?>

<!-- generated on 2024-02-19 21:59:55 by Eclipse SUMO netedit Version 1.18.0
<configuration xmlns:xsi="http://www.w3.org/2001/XMLSchema-instance" xsi:noNamespaceSchemaLocation="http://sumo.dlr.de/xsd/neteditConfiguration.xsd">

    <input>
        <sumo-net-file value="D:\Paper Publish\MARL_TSC\MARL_TSC_code\scenarios\r_corridor\r.net.xml"/>
    </input>

    <output>
        <output-file value="D:\Paper Publish\MARL_TSC\MARL_TSC_code\scenarios\r_corridor\r.net.xml"/>
    </output>

    <processing>
        <geometry.min-radius.fix.railways value="false"/>
        <geometry.max-grade.fix value="false"/>
        <offset.disable-normalization value="true"/>
        <lefthand value="0"/>
    </processing>

    <junctions>
        <no-turnarounds value="true"/>
        <junctions.corner-detail value="5"/>
        <junctions.limit-turn-speed value="5.50"/>
        <rectangular-lane-cut value="0"/>
    </junctions>

    <pedestrian>
        <walkingareas value="0"/>
    </pedestrian>

</configuration>
-->

<net version="1.16" junctionCornerDetail="5" limitTurnSpeed="5.50" xmlns:xsi="http://www.w3.org/2001/XMLSchema-instance" xsi:noNamespaceSchemaLocation="http://sumo.dlr.de/xsd/net_file.xsd">

    <location netOffset="1640.00,500.00" convBoundary="0.00,0.00,3820.00,1000.00" origBoundary="-1640.00,-500.00,2180.00,500.00" projParameter="!"/>

    <edge id=":h2_0" function="internal">
        <lane id=":h2_0_0" index="0" speed="20.00" length="14.40" shape="507.20,504.80 492.80,504.80"/>
        <lane id=":h2_0_1" index="1" speed="20.00" length="14.40" shape="507.20,501.60 492.80,501.60"/>
    </edge>
    <edge id=":h2_2" function="internal">
        <lane id=":h2_2_0" index="0" speed="9.32" length="3.03" shape="507.20,501.60 504.26,500.87"/>
    </edge>
    <edge id=":h2_8" function="internal">
        <lane id=":h2_8_0" index="0" speed="9.32" length="16.60" shape="504.26,500.87 503.35,500.65 500.60,497.80 498.95,493.05 498.40,486.40"/>
    </edge>
    <edge id=":h2_3" function="internal">
        <lane id=":h2_3_0" index="0" speed="6.51" length="9.03" shape="501.60,486.40 501.95,488.85 503.00,490.60 504.75,491.65 507.20,492.00"/>
    </edge>
    <edge id=":h2_4" function="internal">
        <lane id=":h2_4_0" index="0" speed="9.32" length="19.63" shape="501.60,486.40 501.05,493.05 499.40,497.80 496.65,500.65 492.80,501.60"/>
    </edge>
    <edge id=":h2_5" function="internal">
        <lane id=":h2_5_0" index="0" speed="7.33" length="11.73" shape="492.80,495.20 495.25,494.65 497.00,493.00 498.05,490.25 498.40,486.40"/>
    </edge>
    <edge id=":h2_6" function="internal">
        <lane id=":h2_6_0" index="0" speed="20.00" length="14.40" shape="492.80,495.20 507.20,495.20"/>
        <lane id=":h2_6_1" index="1" speed="20.00" length="14.40" shape="492.80,498.40 507.20,498.40"/>
    </edge>
    <edge id=":h3_0" function="internal">
        <lane id=":h3_0_0" index="0" speed="7.33" length="11.73" shape="895.20,513.60 894.85,509.75 893.80,507.00 892.05,505.35 889.60,504.80"/>
    </edge>
    <edge id=":h3_1" function="internal">
        <lane id=":h3_1_0" index="0" speed="20.00" length="30.58" shape="895.20,513.60 895.70,505.33 896.80,496.52 897.90,488.65 898.40,483.20"/>
    </edge>
    <edge id=":h3_2" function="internal">
        <lane id=":h3_2_0" index="0" speed="9.84" length="21.99" shape="898.40,513.60 899.15,506.95 901.40,502.20 905.15,499.35 910.40,498.40"/>
    </edge>
    <edge id=":h3_3" function="internal">
        <lane id=":h3_3_0" index="0" speed="7.33" length="11.73" shape="910.40,508.00 906.55,508.35 903.80,509.40 902.15,511.15 901.60,513.60"/>
    </edge>
    <edge id=":h3_4" function="internal">
        <lane id=":h3_4_0" index="0" speed="20.00" length="21.12" shape="910.40,508.00 904.12,507.50 899.80,506.40 895.59,505.30 889.60,504.80"/>
        <lane id=":h3_4_1" index="1" speed="20.00" length="21.12" shape="910.40,504.80 904.12,504.30 899.80,503.20 895.59,502.10 889.60,501.60"/>
    </edge>
    <edge id=":h3_6" function="internal">
        <lane id=":h3_6_0" index="0" speed="10.41" length="24.73" shape="910.40,501.60 905.15,500.45 901.40,497.00 899.15,491.25 898.40,483.20"/>
    </edge>
    <edge id=":h3_7" function="internal">
        <lane id=":h3_7_0" index="0" speed="6.51" length="9.03" shape="904.80,483.20 905.15,485.65 906.20,487.40 907.95,488.45 910.40,488.80"/>
    </edge>
    <edge id=":h3_8" function="internal">
        <lane id=":h3_8_0" index="0" speed="20.00" length="30.40" shape="901.60,483.20 901.60,513.60"/>
    </edge>
    <edge id=":h3_9" function="internal">
        <lane id=":h3_9_0" index="0" speed="10.41" length="24.73" shape="901.60,483.20 900.85,491.25 898.60,497.00 894.85,500.45 889.60,501.60"/>
    </edge>
    <edge id=":h3_10" function="internal">
        <lane id=":h3_10_0" index="0" speed="8.00" length="14.19" shape="889.60,492.00 893.45,491.45 896.20,489.80 897.85,487.05 898.40,483.20"/>
    </edge>
    <edge id=":h3_11" function="internal">
        <lane id=":h3_11_0" index="0" speed="20.00" length="21.12" shape="889.60,492.00 895.81,491.50 900.00,490.40 904.19,489.30 910.40,488.80"/>
        <lane id=":h3_11_1" index="1" speed="20.00" length="21.12" shape="889.60,495.20 895.81,494.70 900.00,493.60 904.19,492.50 910.40,492.00"/>
    </edge>
    <edge id=":h3_13" function="internal">
        <lane id=":h3_13_0" index="0" speed="9.84" length="21.99" shape="889.60,498.40 894.85,499.35 898.60,502.20 900.85,506.95 901.60,513.60"/>
    </edge>
    <edge id=":h4_0" function="internal">
        <lane id=":h4_0_0" index="0" speed="7.33" length="11.73" shape="1628.80,516.80 1628.45,512.95 1627.40,510.20 1625.65,508.55 1623.20,508.00"/>
    </edge>
    <edge id=":h4_1" function="internal">
        <lane id=":h4_1_0" index="0" speed="20.00" length="33.78" shape="1632.00,516.80 1632.50,505.84 1633.60,497.42 1634.70,490.30 1635.20,483.20"/>
        <lane id=":h4_1_1" index="1" speed="20.00" length="33.78" shape="1635.20,516.80 1635.70,505.84 1636.80,497.42 1637.90,490.30 1638.40,483.20"/>
    </edge>
    <edge id=":h4_3" function="internal">
        <lane id=":h4_3_0" index="0" speed="11.36" length="29.67" shape="1638.40,516.80 1639.55,508.75 1643.00,503.00 1648.75,499.55 1656.80,498.40"/>
    </edge>
    <edge id=":h4_4" function="internal">
        <lane id=":h4_4_0" index="0" speed="8.10" length="14.57" shape="1656.80,511.20 1651.55,511.55 1647.80,512.60 1645.55,514.35 1644.80,516.80"/>
    </edge>
    <edge id=":h4_5" function="internal">
        <lane id=":h4_5_0" index="0" speed="20.00" length="33.80" shape="1656.80,511.20 1646.54,510.70 1639.30,509.60 1632.40,508.50 1623.20,508.00"/>
        <lane id=":h4_5_1" index="1" speed="20.00" length="33.80" shape="1656.80,508.00 1646.54,507.50 1639.30,506.40 1632.40,505.30 1623.20,504.80"/>
    </edge>
    <edge id=":h4_7" function="internal">
        <lane id=":h4_7_0" index="0" speed="12.28" length="34.84" shape="1656.80,504.80 1647.35,503.45 1640.60,499.40 1636.55,492.65 1635.20,483.20"/>
        <lane id=":h4_7_1" index="1" speed="11.36" length="29.67" shape="1656.80,501.60 1648.75,500.45 1643.00,497.00 1639.55,491.25 1638.40,483.20"/>
    </edge>
    <edge id=":h4_9" function="internal">
        <lane id=":h4_9_0" index="0" speed="7.33" length="11.73" shape="1651.20,483.20 1651.55,487.05 1652.60,489.80 1654.35,491.45 1656.80,492.00"/>
    </edge>
    <edge id=":h4_10" function="internal">
        <lane id=":h4_10_0" index="0" speed="20.00" length="33.78" shape="1648.00,483.20 1647.50,494.16 1646.40,502.58 1645.30,509.70 1644.80,516.80"/>
        <lane id=":h4_10_1" index="1" speed="20.00" length="33.78" shape="1644.80,483.20 1644.30,494.16 1643.20,502.58 1642.10,509.70 1641.60,516.80"/>
    </edge>
    <edge id=":h4_12" function="internal">
        <lane id=":h4_12_0" index="0" speed="11.36" length="29.67" shape="1641.60,483.20 1640.45,491.25 1637.00,497.00 1631.25,500.45 1623.20,501.60"/>
    </edge>
    <edge id=":h4_13" function="internal">
        <lane id=":h4_13_0" index="0" speed="8.10" length="14.57" shape="1623.20,488.80 1628.45,488.45 1632.20,487.40 1634.45,485.65 1635.20,483.20"/>
    </edge>
    <edge id=":h4_14" function="internal">
        <lane id=":h4_14_0" index="0" speed="20.00" length="33.80" shape="1623.20,488.80 1633.46,489.30 1640.70,490.40 1647.60,491.50 1656.80,492.00"/>
        <lane id=":h4_14_1" index="1" speed="20.00" length="33.80" shape="1623.20,492.00 1633.46,492.50 1640.70,493.60 1647.60,494.70 1656.80,495.20"/>
    </edge>
    <edge id=":h4_16" function="internal">
        <lane id=":h4_16_0" index="0" speed="12.28" length="34.84" shape="1623.20,495.20 1632.65,496.55 1639.40,500.60 1643.45,507.35 1644.80,516.80"/>
        <lane id=":h4_16_1" index="1" speed="11.36" length="29.67" shape="1623.20,498.40 1631.25,499.55 1637.00,503.00 1640.45,508.75 1641.60,516.80"/>
    </edge>
    <edge id=":h5_0" function="internal">
        <lane id=":h5_0_0" index="0" speed="6.51" length="9.03" shape="2507.00,516.80 2506.65,514.35 2505.60,512.60 2503.85,511.55 2501.40,511.20"/>
    </edge>
    <edge id=":h5_1" function="internal">
        <lane id=":h5_1_0" index="0" speed="20.00" length="30.60" shape="2510.20,516.80 2510.70,506.42 2511.80,497.85 2512.90,491.15 2513.40,486.40"/>
    </edge>
    <edge id=":h5_2" function="internal">
        <lane id=":h5_2_0" index="0" speed="10.41" length="24.73" shape="2513.40,516.80 2514.15,508.75 2516.40,503.00 2520.15,499.55 2525.40,498.40"/>
    </edge>
    <edge id=":h5_3" function="internal">
        <lane id=":h5_3_0" index="0" speed="7.33" length="11.73" shape="2525.40,511.20 2521.55,511.55 2518.80,512.60 2517.15,514.35 2516.60,516.80"/>
    </edge>
    <edge id=":h5_4" function="internal">
        <lane id=":h5_4_0" index="0" speed="20.00" length="24.00" shape="2525.40,508.00 2501.40,508.00"/>
        <lane id=":h5_4_1" index="1" speed="20.00" length="24.00" shape="2525.40,504.80 2501.40,504.80"/>
    </edge>
    <edge id=":h5_6" function="internal">
        <lane id=":h5_6_0" index="0" speed="9.84" length="21.99" shape="2525.40,501.60 2520.15,500.65 2516.40,497.80 2514.15,493.05 2513.40,486.40"/>
    </edge>
    <edge id=":h5_7" function="internal">
        <lane id=":h5_7_0" index="0" speed="6.51" length="9.03" shape="2519.80,486.40 2520.15,488.85 2521.20,490.60 2522.95,491.65 2525.40,492.00"/>
    </edge>
    <edge id=":h5_8" function="internal">
        <lane id=":h5_8_0" index="0" speed="20.00" length="30.58" shape="2519.80,486.40 2519.30,494.67 2518.20,503.48 2517.10,511.35 2516.60,516.80"/>
    </edge>
    <edge id=":h5_9" function="internal">
        <lane id=":h5_9_0" index="0" speed="10.36" length="24.51" shape="2516.60,486.40 2515.65,493.05 2512.80,497.80 2508.05,500.65 2501.40,501.60"/>
    </edge>
    <edge id=":h5_10" function="internal">
        <lane id=":h5_10_0" index="0" speed="8.10" length="14.57" shape="2501.40,492.00 2506.65,491.65 2510.40,490.60 2512.65,488.85 2513.40,486.40"/>
    </edge>
    <edge id=":h5_11" function="internal">
        <lane id=":h5_11_0" index="0" speed="20.00" length="24.00" shape="2501.40,492.00 2525.40,492.00"/>
        <lane id=":h5_11_1" index="1" speed="20.00" length="24.00" shape="2501.40,495.20 2525.40,495.20"/>
    </edge>
    <edge id=":h5_13" function="internal">
        <lane id=":h5_13_0" index="0" speed="10.88" length="27.14" shape="2501.40,498.40 2508.05,499.55 2512.80,503.00 2515.65,508.75 2516.60,516.80"/>
    </edge>
    <edge id=":h6_0" function="internal">
        <lane id=":h6_0_0" index="0" speed="6.51" length="9.03" shape="3315.20,516.80 3314.85,514.35 3313.80,512.60 3312.05,511.55 3309.60,511.20"/>
    </edge>
    <edge id=":h6_1" function="internal">
        <lane id=":h6_1_0" index="0" speed="20.00" length="30.58" shape="3315.20,516.80 3315.70,508.53 3316.80,499.72 3317.90,491.85 3318.40,486.40"/>
    </edge>
    <edge id=":h6_2" function="internal">
        <lane id=":h6_2_0" index="0" speed="10.41" length="24.73" shape="3318.40,516.80 3319.15,508.75 3321.40,503.00 3325.15,499.55 3330.40,498.40"/>
    </edge>
    <edge id=":h6_3" function="internal">
        <lane id=":h6_3_0" index="0" speed="8.00" length="14.19" shape="3330.40,508.00 3326.55,508.55 3323.80,510.20 3322.15,512.95 3321.60,516.80"/>
    </edge>
    <edge id=":h6_4" function="internal">
        <lane id=":h6_4_0" index="0" speed="20.00" length="21.12" shape="3330.40,508.00 3324.19,508.50 3320.00,509.60 3315.81,510.70 3309.60,511.20"/>
        <lane id=":h6_4_1" index="1" speed="20.00" length="21.12" shape="3330.40,504.80 3324.19,505.30 3320.00,506.40 3315.81,507.50 3309.60,508.00"/>
    </edge>
    <edge id=":h6_6" function="internal">
        <lane id=":h6_6_0" index="0" speed="9.84" length="21.99" shape="3330.40,501.60 3325.15,500.65 3321.40,497.80 3319.15,493.05 3318.40,486.40"/>
    </edge>
    <edge id=":h6_7" function="internal">
        <lane id=":h6_7_0" index="0" speed="6.51" length="9.03" shape="3324.80,486.40 3325.15,488.85 3326.20,490.60 3327.95,491.65 3330.40,492.00"/>
    </edge>
    <edge id=":h6_8" function="internal">
        <lane id=":h6_8_0" index="0" speed="20.00" length="30.58" shape="3324.80,486.40 3324.30,494.67 3323.20,503.48 3322.10,511.35 3321.60,516.80"/>
    </edge>
    <edge id=":h6_9" function="internal">
        <lane id=":h6_9_0" index="0" speed="9.84" length="21.99" shape="3321.60,486.40 3320.85,493.05 3318.60,497.80 3314.85,500.65 3309.60,501.60"/>
    </edge>
    <edge id=":h6_10" function="internal">
        <lane id=":h6_10_0" index="0" speed="7.33" length="11.73" shape="3309.60,492.00 3313.45,491.65 3316.20,490.60 3317.85,488.85 3318.40,486.40"/>
    </edge>
    <edge id=":h6_11" function="internal">
        <lane id=":h6_11_0" index="0" speed="20.00" length="20.80" shape="3309.60,492.00 3330.40,492.00"/>
        <lane id=":h6_11_1" index="1" speed="20.00" length="20.80" shape="3309.60,495.20 3330.40,495.20"/>
    </edge>
    <edge id=":h6_13" function="internal">
        <lane id=":h6_13_0" index="0" speed="10.41" length="24.73" shape="3309.60,498.40 3314.85,499.55 3318.60,503.00 3320.85,508.75 3321.60,516.80"/>
    </edge>

    <edge id="e1" from="h1" to="h2" priority="-1">
        <lane id="e1_0" index="0" speed="20.00" length="492.80" shape="0.00,495.20 492.80,495.20"/>
        <lane id="e1_1" index="1" speed="20.00" length="492.80" shape="0.00,498.40 492.80,498.40"/>
    </edge>
    <edge id="e2" from="h2" to="h3" priority="-1">
        <lane id="e2_0" index="0" speed="20.00" length="382.40" shape="507.20,492.00 889.60,492.00"/>
        <lane id="e2_1" index="1" speed="20.00" length="382.40" shape="507.20,495.20 889.60,495.20"/>
        <lane id="e2_2" index="2" speed="20.00" length="382.40" shape="507.20,498.40 889.60,498.40"/>
    </edge>
    <edge id="e3" from="h3" to="h4" priority="-1">
        <lane id="e3_0" index="0" speed="20.00" length="712.80" shape="910.40,488.80 1623.20,488.80"/>
        <lane id="e3_1" index="1" speed="20.00" length="712.80" shape="910.40,492.00 1623.20,492.00"/>
        <lane id="e3_2" index="2" speed="20.00" length="712.80" shape="910.40,495.20 1623.20,495.20"/>
        <lane id="e3_3" index="3" speed="20.00" length="712.80" shape="910.40,498.40 1623.20,498.40"/>
    </edge>
    <edge id="e4" from="h4" to="h5" priority="-1">
        <lane id="e4_0" index="0" speed="20.00" length="844.60" shape="1656.80,492.00 2501.40,492.00"/>
        <lane id="e4_1" index="1" speed="20.00" length="844.60" shape="1656.80,495.20 2501.40,495.20"/>
        <lane id="e4_2" index="2" speed="20.00" length="844.60" shape="1656.80,498.40 2501.40,498.40"/>
    </edge>
    <edge id="e5" from="h5" to="h6" priority="-1">
        <lane id="e5_0" index="0" speed="20.00" length="784.20" shape="2525.40,492.00 3309.60,492.00"/>
        <lane id="e5_1" index="1" speed="20.00" length="784.20" shape="2525.40,495.20 3309.60,495.20"/>
        <lane id="e5_2" index="2" speed="20.00" length="784.20" shape="2525.40,498.40 3309.60,498.40"/>
    </edge>
    <edge id="e6" from="h6" to="h7" priority="-1">
        <lane id="e6_0" index="0" speed="20.00" length="489.60" shape="3330.40,492.00 3820.00,492.00"/>
        <lane id="e6_1" index="1" speed="20.00" length="489.60" shape="3330.40,495.20 3820.00,495.20"/>
        <lane id="e6_2" index="2" speed="20.00" length="489.60" shape="3330.40,498.40 3820.00,498.40"/>
    </edge>
    <edge id="hn3" from="h3" to="n3" priority="-1">
        <lane id="hn3_0" index="0" speed="20.00" length="486.40" shape="901.60,513.60 901.60,1000.00"/>
    </edge>
    <edge id="hn4" from="h4" to="n4" priority="-1">
        <lane id="hn4_0" index="0" speed="20.00" length="483.20" shape="1644.80,516.80 1644.80,1000.00"/>
        <lane id="hn4_1" index="1" speed="20.00" length="483.20" shape="1641.60,516.80 1641.60,1000.00"/>
    </edge>
    <edge id="hn5" from="h5" to="n5" priority="-1">
        <lane id="hn5_0" index="0" speed="20.00" length="483.20" shape="2516.60,516.80 2516.60,1000.00"/>
    </edge>
    <edge id="hn6" from="h6" to="n6" priority="-1">
        <lane id="hn6_0" index="0" speed="20.00" length="483.20" shape="3321.60,516.80 3321.60,1000.00"/>
    </edge>
    <edge id="hs2" from="h2" to="s2" priority="-1">
        <lane id="hs2_0" index="0" speed="20.00" length="486.40" shape="498.40,486.40 498.40,0.00"/>
    </edge>
    <edge id="hs3" from="h3" to="s3" priority="-1">
        <lane id="hs3_0" index="0" speed="20.00" length="483.20" shape="898.40,483.20 898.40,0.00"/>
    </edge>
    <edge id="hs4" from="h4" to="s4" priority="-1">
        <lane id="hs4_0" index="0" speed="20.00" length="483.20" shape="1635.20,483.20 1635.20,0.00"/>
        <lane id="hs4_1" index="1" speed="20.00" length="483.20" shape="1638.40,483.20 1638.40,0.00"/>
    </edge>
    <edge id="hs5" from="h5" to="s5" priority="-1">
        <lane id="hs5_0" index="0" speed="20.00" length="486.40" shape="2513.40,486.40 2513.40,0.00"/>
    </edge>
    <edge id="hs6" from="h6" to="s6" priority="-1">
        <lane id="hs6_0" index="0" speed="20.00" length="486.40" shape="3318.40,486.40 3318.40,0.00"/>
    </edge>
    <edge id="nh3" from="n3" to="h3" priority="-1">
        <lane id="nh3_0" index="0" speed="20.00" length="486.40" shape="895.20,1000.00 895.20,513.60"/>
        <lane id="nh3_1" index="1" speed="20.00" length="486.40" shape="898.40,1000.00 898.40,513.60"/>
    </edge>
    <edge id="nh4" from="n4" to="h4" priority="-1">
        <lane id="nh4_0" index="0" speed="20.00" length="483.20" shape="1628.80,1000.00 1628.80,516.80"/>
        <lane id="nh4_1" index="1" speed="20.00" length="483.20" shape="1632.00,1000.00 1632.00,516.80"/>
        <lane id="nh4_2" index="2" speed="20.00" length="483.20" shape="1635.20,1000.00 1635.20,516.80"/>
        <lane id="nh4_3" index="3" speed="20.00" length="483.20" shape="1638.40,1000.00 1638.40,516.80"/>
    </edge>
    <edge id="nh5" from="n5" to="h5" priority="-1">
        <lane id="nh5_0" index="0" speed="20.00" length="483.20" shape="2507.00,1000.00 2507.00,516.80"/>
        <lane id="nh5_1" index="1" speed="20.00" length="483.20" shape="2510.20,1000.00 2510.20,516.80"/>
        <lane id="nh5_2" index="2" speed="20.00" length="483.20" shape="2513.40,1000.00 2513.40,516.80"/>
    </edge>
    <edge id="nh6" from="n6" to="h6" priority="-1">
        <lane id="nh6_0" index="0" speed="20.00" length="483.20" shape="3315.20,1000.00 3315.20,516.80"/>
        <lane id="nh6_1" index="1" speed="20.00" length="483.20" shape="3318.40,1000.00 3318.40,516.80"/>
    </edge>
    <edge id="sh2" from="s2" to="h2" priority="-1">
        <lane id="sh2_0" index="0" speed="20.00" length="486.40" shape="501.60,0.00 501.60,486.40"/>
    </edge>
    <edge id="sh3" from="s3" to="h3" priority="-1">
        <lane id="sh3_0" index="0" speed="20.00" length="483.20" shape="904.80,0.00 904.80,483.20"/>
        <lane id="sh3_1" index="1" speed="20.00" length="483.20" shape="901.60,0.00 901.60,483.20"/>
    </edge>
    <edge id="sh4" from="s4" to="h4" priority="-1">
        <lane id="sh4_0" index="0" speed="20.00" length="483.20" shape="1651.20,0.00 1651.20,483.20"/>
        <lane id="sh4_1" index="1" speed="20.00" length="483.20" shape="1648.00,0.00 1648.00,483.20"/>
        <lane id="sh4_2" index="2" speed="20.00" length="483.20" shape="1644.80,0.00 1644.80,483.20"/>
        <lane id="sh4_3" index="3" speed="20.00" length="483.20" shape="1641.60,0.00 1641.60,483.20"/>
    </edge>
    <edge id="sh5" from="s5" to="h5" priority="-1">
        <lane id="sh5_0" index="0" speed="20.00" length="486.40" shape="2519.80,0.00 2519.80,486.40"/>
        <lane id="sh5_1" index="1" speed="20.00" length="486.40" shape="2516.60,0.00 2516.60,486.40"/>
    </edge>
    <edge id="sh6" from="s6" to="h6" priority="-1">
        <lane id="sh6_0" index="0" speed="20.00" length="486.40" shape="3324.80,0.00 3324.80,486.40"/>
        <lane id="sh6_1" index="1" speed="20.00" length="486.40" shape="3321.60,0.00 3321.60,486.40"/>
    </edge>
    <edge id="w1" from="h2" to="h1" priority="-1">
        <lane id="w1_0" index="0" speed="20.00" length="492.80" shape="492.80,504.80 0.00,504.80"/>
        <lane id="w1_1" index="1" speed="20.00" length="492.80" shape="492.80,501.60 0.00,501.60"/>
    </edge>
    <edge id="w2" from="h3" to="h2" priority="-1">
        <lane id="w2_0" index="0" speed="20.00" length="382.40" shape="889.60,504.80 507.20,504.80"/>
        <lane id="w2_1" index="1" speed="20.00" length="382.40" shape="889.60,501.60 507.20,501.60"/>
    </edge>
    <edge id="w3" from="h4" to="h3" priority="-1">
        <lane id="w3_0" index="0" speed="20.00" length="712.80" shape="1623.20,508.00 910.40,508.00"/>
        <lane id="w3_1" index="1" speed="20.00" length="712.80" shape="1623.20,504.80 910.40,504.80"/>
        <lane id="w3_2" index="2" speed="20.00" length="712.80" shape="1623.20,501.60 910.40,501.60"/>
    </edge>
    <edge id="w4" from="h5" to="h4" priority="-1">
        <lane id="w4_0" index="0" speed="20.00" length="844.60" shape="2501.40,511.20 1656.80,511.20"/>
        <lane id="w4_1" index="1" speed="20.00" length="844.60" shape="2501.40,508.00 1656.80,508.00"/>
        <lane id="w4_2" index="2" speed="20.00" length="844.60" shape="2501.40,504.80 1656.80,504.80"/>
        <lane id="w4_3" index="3" speed="20.00" length="844.60" shape="2501.40,501.60 1656.80,501.60"/>
    </edge>
    <edge id="w5" from="h6" to="h5" priority="-1">
        <lane id="w5_0" index="0" speed="20.00" length="784.20" shape="3309.60,511.20 2525.40,511.20"/>
        <lane id="w5_1" index="1" speed="20.00" length="784.20" shape="3309.60,508.00 2525.40,508.00"/>
        <lane id="w5_2" index="2" speed="20.00" length="784.20" shape="3309.60,504.80 2525.40,504.80"/>
        <lane id="w5_3" index="3" speed="20.00" length="784.20" shape="3309.60,501.60 2525.40,501.60"/>
    </edge>
    <edge id="w6" from="h7" to="h6" priority="-1">
        <lane id="w6_0" index="0" speed="20.00" length="489.60" shape="3820.00,508.00 3330.40,508.00"/>
        <lane id="w6_1" index="1" speed="20.00" length="489.60" shape="3820.00,504.80 3330.40,504.80"/>
        <lane id="w6_2" index="2" speed="20.00" length="489.60" shape="3820.00,501.60 3330.40,501.60"/>
    </edge>

    <tlLogic id="h2" type="static" programID="0" offset="0">
        <phase duration="15" state="GGggrgGG"/>
        <phase duration="3"  state="yyygrgyy"/>
        <phase duration="2"  state="rrrgrgrr"/>
        <phase duration="5"  state="rrrgGgrr"/>
        <phase duration="3"  state="rrrgygrr"/>
        <phase duration="2"  state="rrrgrgrr"/>
    </tlLogic>
    <tlLogic id="h3" type="static" programID="0" offset="0">
        <phase duration="20" state="grrgGGrgrrgGGr"/>
        <phase duration="3"  state="grrgyyrgrrgyyr"/>
        <phase duration="2"  state="grrgrrrgrrgrrr"/>
        <phase duration="14" state="grrgrrGgrrgrrG"/>
        <phase duration="3"  state="grrgrrygrrgrry"/>
        <phase duration="2"  state="grrgrrrgrrgrrr"/>
        <phase duration="5"  state="gGGgrrrgrrgrrr"/>
        <phase duration="3"  state="gyygrrrgrrgrrr"/>
        <phase duration="2"  state="grrgrrrgrrgrrr"/>
        <phase duration="17" state="grrgrrrgGGgrrr"/>
        <phase duration="3"  state="grrgrrrgyygrrr"/>
        <phase duration="2"  state="grrgrrrgrrgrrr"/>
    </tlLogic>
    <tlLogic id="h4" type="static" programID="0" offset="0">
        <phase duration="12" state="grrrgGGrrgrrrgGGrr" name="wtet"/>
        <phase duration="3"  state="grrrgyyrrgrrrgyyrr" name="wtet-y"/>
        <phase duration="2"  state="grrrgrrrrgrrrgrrrr" name="wtet-r"/>
        <phase duration="8"  state="grrrgrrGGgrrrgrrGG" name="wlel"/>
        <phase duration="3"  state="grrrgrryygrrrgrryy" name="wlel-y"/>
        <phase duration="2"  state="grrrgrrrrgrrrgrrrr" name="wlel-r"/>
        <phase duration="20" state="gGGrgrrrrgGGrgrrrr"/>
        <phase duration="3"  state="gyyrgrrrrgyyrgrrrr"/>
        <phase duration="2"  state="grrrgrrrrgrrrgrrrr"/>
        <phase duration="9" state="grrGgrrrrgrrGgrrrr"/>
        <phase duration="3"  state="grrygrrrrgrrygrrrr"/>
        <phase duration="2"  state="grrrgrrrrgrrrgrrrr"/>
    </tlLogic>
    <tlLogic id="h5" type="static" programID="0" offset="0">
        <phase duration="16" state="grrgGGrgrrgGGr"/>
        <phase duration="3"  state="grrgyyrgrrgyyr"/>
        <phase duration="2"  state="grrgrrrgrrgrrr"/>
        <phase duration="5"  state="grrgrrGgrrgrrG"/>
        <phase duration="3"  state="grrgrrygrrgrry"/>
        <phase duration="2"  state="grrgrrrgrrgrrr"/>
        <phase duration="7" state="gGrgrrrgGrgrrr"/>
        <phase duration="3"  state="gyrgrrrgyrgrrr"/>
        <phase duration="2"  state="grrgrrrgrrgrrr"/>
        <phase duration="11" state="grGgrrrgrGgrrr"/>
        <phase duration="3"  state="grygrrrgrygrrr"/>
        <phase duration="2"  state="grrgrrrgrrgrrr"/>
    </tlLogic>
    <tlLogic id="h6" type="static" programID="0" offset="0">
        <phase duration="21" state="grrgGGrgrrgGGr"/>
        <phase duration="3"  state="grrgyyrgrrgyyr"/>
        <phase duration="2"  state="grrgrrrgrrgrrr"/>
        <phase duration="7"  state="grrgrrGgrrgrrG"/>
        <phase duration="3"  state="grrgrrygrrgrry"/>
        <phase duration="2"  state="grrgrrrgrrgrrr"/>
        <phase duration="5"  state="gGrgrrrgGrgrrr"/>
        <phase duration="3"  state="gyrgrrrgyrgrrr"/>
        <phase duration="2"  state="grrgrrrgrrgrrr"/>
        <phase duration="6"  state="grGgrrrgrGgrrr"/>
        <phase duration="3"  state="grygrrrgrygrrr"/>
        <phase duration="2"  state="grrgrrrgrrgrrr"/>
    </tlLogic>

    <junction id="h1" type="dead_end" x="0.00" y="500.00" incLanes="w1_0 w1_1" intLanes="" shape="0.00,500.00 0.00,506.40 0.00,500.00"/>
    <junction id="h2" type="traffic_light" x="500.00" y="500.00" incLanes="w2_0 w2_1 sh2_0 e1_0 e1_1" intLanes=":h2_0_0 :h2_0_1 :h2_8_0 :h2_3_0 :h2_4_0 :h2_5_0 :h2_6_0 :h2_6_1" shape="507.20,506.40 507.20,490.40 504.98,489.96 504.20,489.40 503.64,488.62 503.31,487.62 503.20,486.40 496.80,486.40 496.69,488.60 496.36,490.40 495.80,491.80 495.02,492.80 494.02,493.40 492.80,493.60 492.80,506.40" rightOfWay="allwayStop">
        <request index="0" response="00000000" foes="00010000" cont="0"/>
        <request index="1" response="00000000" foes="00010000" cont="0"/>
        <request index="2" response="11100000" foes="11110000" cont="1"/>
        <request index="3" response="00000000" foes="00000000" cont="0"/>
        <request index="4" response="11000111" foes="11000111" cont="0"/>
        <request index="5" response="00000000" foes="00000100" cont="0"/>
        <request index="6" response="00000000" foes="00010100" cont="0"/>
        <request index="7" response="00000000" foes="00010100" cont="0"/>
    </junction>
    <junction id="h3" type="traffic_light" x="900.00" y="500.00" incLanes="nh3_0 nh3_1 w3_0 w3_1 w3_2 sh3_0 sh3_1 e2_0 e2_1 e2_2" intLanes=":h3_0_0 :h3_1_0 :h3_2_0 :h3_3_0 :h3_4_0 :h3_4_1 :h3_6_0 :h3_7_0 :h3_8_0 :h3_9_0 :h3_10_0 :h3_11_0 :h3_11_1 :h3_13_0" shape="893.60,513.60 903.20,513.60 904.00,511.38 905.00,510.60 906.40,510.04 908.20,509.71 910.40,509.60 910.40,487.20 908.18,486.76 907.40,486.20 906.84,485.42 906.51,484.42 906.40,483.20 896.80,483.20 896.60,485.40 896.00,487.20 895.00,488.60 893.60,489.60 891.80,490.20 889.60,490.40 889.60,506.40 891.82,507.20 892.60,508.20 893.16,509.60 893.49,511.40" rightOfWay="allwayStop">
        <request index="0"  response="00000000110000" foes="00000000110000" cont="0"/>
        <request index="1"  response="11110001110000" foes="11111001110000" cont="0"/>
        <request index="2"  response="10000101110000" foes="10000101110000" cont="0"/>
        <request index="3"  response="00000000000000" foes="10000100000000" cont="0"/>
        <request index="4"  response="00000000000000" foes="10001100000111" cont="0"/>
        <request index="5"  response="00000000000000" foes="10001100000111" cont="0"/>
        <request index="6"  response="01110000000000" foes="01111100000110" cont="0"/>
        <request index="7"  response="01100000000000" foes="01100000000000" cont="0"/>
        <request index="8"  response="11100001111000" foes="11100001111100" cont="0"/>
        <request index="9"  response="11100001110010" foes="11100001110010" cont="0"/>
        <request index="10" response="00000000000000" foes="00000001000010" cont="0"/>
        <request index="11" response="00000000000000" foes="00001111000010" cont="0"/>
        <request index="12" response="00000000000000" foes="00001111000010" cont="0"/>
        <request index="13" response="00000000111000" foes="00001100111110" cont="0"/>
    </junction>