<nodes>
    <node id="h1" x="-1640.0" y="0.0" />
    <node id="h2" x="-1140.0" y="0.0" />
    <node id="h3" x="-740.0" y="0.0" />
    <node id="h4" x="0.0" y="0.0" />
    <node id="h5" x="875.0" y="0.0" />
    <node id="h6" x="1680.0" y="0.0" />
    <node id="h7" x="2180.0" y="0.0" />

    <node id="s2" x="-1140.0" y="-500.0" />

    <node id="n3" x="-740.0" y="500.0" />
    <node id="s3" x="-740.0" y="-500.0" />

    <node id="n4" x="0.0" y="500.0" />
    <node id="s4" x="0.0" y="-500.0" />

    <node id="n5" x="875.0" y="500.0" />
    <node id="s5" x="875.0" y="-500.0" />

    <node id="n6" x="1680.0" y="500.0" />
    <node id="s6" x="1680.0" y="-500.0" />
</nodes>
