<configuration>

    <input>
        <net-file value="r.net.xml"/>
        <route-files value="sample_peak.rou.xml"/>
        <additional-files value="r.add.xml, bus_far.add.xml"/>
    </input>

    <time-to-teleport value="-1"/>

</configuration>