<routes>
    <vType id="car" carFollowModel="IDM" vClass="passenger"/>
    <vType id="cv" carFollowModel="IDM" vClass="passenger" color="0,1,1"/>

    <route id="0" edges="e1 e2 e3 e4 e5 e6" />
    <route id="1" edges="e1 e2 e3 e4 e5 hn6" />
    <route id="2" edges="e1 e2 e3 e4 e5 hs6" />
    <route id="3" edges="e1 e2 e3 e4 hn5" />
    <route id="4" edges="e1 e2 e3 e4 hs5" />
    <route id="5" edges="e1 e2 e3 hn4" />
    <route id="6" edges="e1 e2 e3 hs4" />
    <route id="7" edges="e1 e2 hn3" />
    <route id="8" edges="e1 e2 hs3" />
    <route id="9" edges="e1 hn2" />
    <route id="10" edges="e1 hs2" />
    <route id="11" edges="nh2 e2 e3 e4 e5 e6" />
    <route id="12" edges="nh2 e2 e3 e4 e5 hn6" />
    <route id="13" edges="nh2 e2 e3 e4 e5 hs6" />
    <route id="14" edges="nh2 e2 e3 e4 hn5" />
    <route id="15" edges="nh2 e2 e3 e4 hs5" />
    <route id="16" edges="nh2 e2 e3 hn4" />
    <route id="17" edges="nh2 e2 e3 hs4" />
    <route id="18" edges="nh2 e2 hn3" />
    <route id="19" edges="nh2 e2 hs3" />
    <route id="20" edges="nh2 hs2" />
    <route id="21" edges="nh2 w1" />
    <route id="22" edges="nh3 e3 e4 e5 e6" />
    <route id="23" edges="nh3 e3 e4 e5 hn6" />
    <route id="24" edges="nh3 e3 e4 e5 hs6" />
    <route id="25" edges="nh3 e3 e4 hn5" />
    <route id="26" edges="nh3 e3 e4 hs5" />
    <route id="27" edges="nh3 e3 hn4" />
    <route id="28" edges="nh3 e3 hs4" />
    <route id="29" edges="nh3 hs3" />
    <route id="30" edges="nh3 w2 hn2" />
    <route id="31" edges="nh3 w2 hs2" />
    <route id="32" edges="nh3 w2 w1" />
    <route id="33" edges="nh4 e4 e5 e6" />
    <route id="34" edges="nh4 e4 e5 hn6" />
    <route id="35" edges="nh4 e4 e5 hs6" />
    <route id="36" edges="nh4 e4 hn5" />
    <route id="37" edges="nh4 e4 hs5" />
    <route id="38" edges="nh4 hs4" />
    <route id="39" edges="nh4 w3 hn3" />
    <route id="40" edges="nh4 w3 hs3" />
    <route id="41" edges="nh4 w3 w2 hn2" />
    <route id="42" edges="nh4 w3 w2 hs2" />
    <route id="43" edges="nh4 w3 w2 w1" />
    <route id="44" edges="nh5 e5 e6" />
    <route id="45" edges="nh5 e5 hn6" />
    <route id="46" edges="nh5 e5 hs6" />
    <route id="47" edges="nh5 hs5" />
    <route id="48" edges="nh5 w4 hn4" />
    <route id="49" edges="nh5 w4 hs4" />
    <route id="50" edges="nh5 w4 w3 hn3" />
    <route id="51" edges="nh5 w4 w3 hs3" />
    <route id="52" edges="nh5 w4 w3 w2 hn2" />
    <route id="53" edges="nh5 w4 w3 w2 hs2" />
    <route id="54" edges="nh5 w4 w3 w2 w1" />
    <route id="55" edges="nh6 e6" />
    <route id="56" edges="nh6 hs6" />
    <route id="57" edges="nh6 w5 hn5" />
    <route id="58" edges="nh6 w5 hs5" />
    <route id="59" edges="nh6 w5 w4 hn4" />
    <route id="60" edges="nh6 w5 w4 hs4" />
    <route id="61" edges="nh6 w5 w4 w3 hn3" />
    <route id="62" edges="nh6 w5 w4 w3 hs3" />
    <route id="63" edges="nh6 w5 w4 w3 w2 hn2" />
    <route id="64" edges="nh6 w5 w4 w3 w2 hs2" />
    <route id="65" edges="nh6 w5 w4 w3 w2 w1" />
    <route id="66" edges="sh2 e2 e3 e4 e5 e6" />
    <route id="67" edges="sh2 e2 e3 e4 e5 hn6" />
    <route id="68" edges="sh2 e2 e3 e4 e5 hs6" />
    <route id="69" edges="sh2 e2 e3 e4 hn5" />
    <route id="70" edges="sh2 e2 e3 e4 hs5" />
    <route id="71" edges="sh2 e2 e3 hn4" />
    <route id="72" edges="sh2 e2 e3 hs4" />
    <route id="73" edges="sh2 e2 hn3" />
    <route id="74" edges="sh2 e2 hs3" />
    <route id="75" edges="sh2 hn2" />
    <route id="76" edges="sh2 w1" />
    <route id="77" edges="sh3 e3 e4 e5 e6" />
    <route id="78" edges="sh3 e3 e4 e5 hn6" />
    <route id="79" edges="sh3 e3 e4 e5 hs6" />
    <route id="80" edges="sh3 e3 e4 hn5" />
    <route id="81" edges="sh3 e3 e4 hs5" />
    <route id="82" edges="sh3 e3 hn4" />
    <route id="83" edges="sh3 e3 hs4" />
    <route id="84" edges="sh3 hn3" />
    <route id="85" edges="sh3 w2 hn2" />
    <route id="86" edges="sh3 w2 hs2" />
    <route id="87" edges="sh3 w2 w1" />
    <route id="88" edges="sh4 e4 e5 e6" />
    <route id="89" edges="sh4 e4 e5 hn6" />
    <route id="90" edges="sh4 e4 e5 hs6" />
    <route id="91" edges="sh4 e4 hn5" />
    <route id="92" edges="sh4 e4 hs5" />
    <route id="93" edges="sh4 hn4" />
    <route id="94" edges="sh4 w3 hn3" />
    <route id="95" edges="sh4 w3 hs3" />
    <route id="96" edges="sh4 w3 w2 hn2" />
    <route id="97" edges="sh4 w3 w2 hs2" />
    <route id="98" edges="sh4 w3 w2 w1" />
    <route id="99" edges="sh5 e5 e6" />
    <route id="100" edges="sh5 e5 hn6" />
    <route id="101" edges="sh5 e5 hs6" />
    <route id="102" edges="sh5 hn5" />
    <route id="103" edges="sh5 w4 hn4" />
    <route id="104" edges="sh5 w4 hs4" />
    <route id="105" edges="sh5 w4 w3 hn3" />
    <route id="106" edges="sh5 w4 w3 hs3" />
    <route id="107" edges="sh5 w4 w3 w2 hn2" />
    <route id="108" edges="sh5 w4 w3 w2 hs2" />
    <route id="109" edges="sh5 w4 w3 w2 w1" />
    <route id="110" edges="sh6 e6" />
    <route id="111" edges="sh6 hn6" />
    <route id="112" edges="sh6 w5 hn5" />
    <route id="113" edges="sh6 w5 hs5" />
    <route id="114" edges="sh6 w5 w4 hn4" />
    <route id="115" edges="sh6 w5 w4 hs4" />
    <route id="116" edges="sh6 w5 w4 w3 hn3" />
    <route id="117" edges="sh6 w5 w4 w3 hs3" />
    <route id="118" edges="sh6 w5 w4 w3 w2 hn2" />
    <route id="119" edges="sh6 w5 w4 w3 w2 hs2" />
    <route id="120" edges="sh6 w5 w4 w3 w2 w1" />
    <route id="121" edges="w6 hn6" />
    <route id="122" edges="w6 hs6" />
    <route id="123" edges="w6 w5 hn5" />
    <route id="124" edges="w6 w5 hs5" />
    <route id="125" edges="w6 w5 w4 hn4" />
    <route id="126" edges="w6 w5 w4 hs4" />
    <route id="127" edges="w6 w5 w4 w3 hn3" />
    <route id="128" edges="w6 w5 w4 w3 hs3" />
    <route id="129" edges="w6 w5 w4 w3 w2 hn2" />
    <route id="130" edges="w6 w5 w4 w3 w2 hs2" />
    <route id="131" edges="w6 w5 w4 w3 w2 w1" />
    <flows>
        <flow id="0_0" begin="0.00" end="4400.00" route="0" departLane="best" departSpeed="max" type="cv" probability="0.019" />
        <flow id="0_1" begin="0.00" end="4400.00" route="0" departLane="best" departSpeed="max" type="car" probability="0.0285" />
        <flow id="1_0" begin="0.00" end="4400.00" route="1" departLane="best" departSpeed="max" type="cv" probability="0.00192" />
        <flow id="1_1" begin="0.00" end="4400.00" route="1" departLane="best" departSpeed="max" type="car" probability="0.00288" />
        <flow id="2_0" begin="0.00" end="4400.00" route="2" departLane="best" departSpeed="max" type="cv" probability="0.00336" />
        <flow id="2_1" begin="0.00" end="4400.00" route="2" departLane="best" departSpeed="max" type="car" probability="0.00504" />
        <flow id="3_0" begin="0.00" end="4400.00" route="3" departLane="best" departSpeed="max" type="cv" probability="0.003" />
        <flow id="3_1" begin="0.00" end="4400.00" route="3" departLane="best" departSpeed="max" type="car" probability="0.0045" />
        <flow id="4_0" begin="0.00" end="4400.00" route="4" departLane="best" departSpeed="max" type="cv" probability="0.00428" />
        <flow id="4_1" begin="0.00" end="4400.00" route="4" departLane="best" departSpeed="max" type="car" probability="0.00642" />
        <flow id="5_0" begin="0.00" end="4400.00" route="5" departLane="best" departSpeed="max" type="cv" probability="0.00436" />
        <flow id="5_1" begin="0.00" end="4400.00" route="5" departLane="best" departSpeed="max" type="car" probability="0.00654" />
        <flow id="6_0" begin="0.00" end="4400.00" route="6" departLane="best" departSpeed="max" type="cv" probability="0.00692" />
        <flow id="6_1" begin="0.00" end="4400.00" route="6" departLane="best" departSpeed="max" type="car" probability="0.01038" />
        <flow id="7_0" begin="0.00" end="4400.00" route="7" departLane="best" departSpeed="max" type="cv" probability="0.00628" />
        <flow id="7_1" begin="0.00" end="4400.00" route="7" departLane="best" departSpeed="max" type="car" probability="0.00942" />
        <flow id="8_0" begin="0.00" end="4400.00" route="8" departLane="best" departSpeed="max" type="cv" probability="0.00872" />
        <flow id="8_1" begin="0.00" end="4400.00" route="8" departLane="best" departSpeed="max" type="car" probability="0.01308" />
        <flow id="9_0" begin="0.00" end="4400.00" route="9" departLane="best" departSpeed="max" type="cv" probability="0.0078" />
        <flow id="9_1" begin="0.00" end="4400.00" route="9" departLane="best" departSpeed="max" type="car" probability="0.0117" />
        <flow id="10_0" begin="0.00" end="4400.00" route="10" departLane="best" departSpeed="max" type="cv" probability="0.01164" />
        <flow id="10_1" begin="0.00" end="4400.00" route="10" departLane="best" departSpeed="max" type="car" probability="0.01746" />
        <flow id="11_0" begin="0.00" end="4400.00" route="11" departLane="best" departSpeed="max" type="cv" probability="0.00256" />
        <flow id="11_1" begin="0.00" end="4400.00" route="11" departLane="best" departSpeed="max" type="car" probability="0.00384" />
        <flow id="12_0" begin="0.00" end="4400.00" route="12" departLane="best" departSpeed="max" type="cv" probability="0.00044" />
        <flow id="12_1" begin="0.00" end="4400.00" route="12" departLane="best" departSpeed="max" type="car" probability="0.00066" />
        <flow id="13_0" begin="0.00" end="4400.00" route="13" departLane="best" departSpeed="max" type="cv" probability="0.00044" />
        <flow id="13_1" begin="0.00" end="4400.00" route="13" departLane="best" departSpeed="max" type="car" probability="0.00066" />
        <flow id="14_0" begin="0.00" end="4400.00" route="14" departLane="best" departSpeed="max" type="cv" probability="0.00036" />
        <flow id="14_1" begin="0.00" end="4400.00" route="14" departLane="best" departSpeed="max" type="car" probability="0.00054" />
        <flow id="15_0" begin="0.00" end="4400.00" route="15" departLane="best" departSpeed="max" type="cv" probability="0.00072" />
        <flow id="15_1" begin="0.00" end="4400.00" route="15" departLane="best" departSpeed="max" type="car" probability="0.00108" />
        <flow id="16_0" begin="0.00" end="4400.00" route="16" departLane="best" departSpeed="max" type="cv" probability="0.00064" />
        <flow id="16_1" begin="0.00" end="4400.00" route="16" departLane="best" departSpeed="max" type="car" probability="0.00096" />
        <flow id="17_0" begin="0.00" end="4400.00" route="17" departLane="best" departSpeed="max" type="cv" probability="0.0008" />
        <flow id="17_1" begin="0.00" end="4400.00" route="17" departLane="best" departSpeed="max" type="car" probability="0.0012" />
        <flow id="18_0" begin="0.00" end="4400.00" route="18" departLane="best" departSpeed="max" type="cv" probability="0.00072" />
        <flow id="18_1" begin="0.00" end="4400.00" route="18" departLane="best" departSpeed="max" type="car" probability="0.00108" />
        <flow id="19_0" begin="0.00" end="4400.00" route="19" departLane="best" departSpeed="max" type="cv" probability="0.00108" />
        <flow id="19_1" begin="0.00" end="4400.00" route="19" departLane="best" departSpeed="max" type="car" probability="0.00162" />
        <flow id="20_0" begin="0.00" end="4400.00" route="20" departLane="best" departSpeed="max" type="cv" probability="0.05772" />
        <flow id="20_1" begin="0.00" end="4400.00" route="20" departLane="best" departSpeed="max" type="car" probability="0.08658" />
        <flow id="21_0" begin="0.00" end="4400.00" route="21" departLane="best" departSpeed="max" type="cv" probability="0.01172" />
        <flow id="21_1" begin="0.00" end="4400.00" route="21" departLane="best" departSpeed="max" type="car" probability="0.01758" />
        <flow id="22_0" begin="0.00" end="4400.00" route="22" departLane="best" departSpeed="max" type="cv" probability="0.0032" />
        <flow id="22_1" begin="0.00" end="4400.00" route="22" departLane="best" departSpeed="max" type="car" probability="0.0048" />
        <flow id="23_0" begin="0.00" end="4400.00" route="23" departLane="best" departSpeed="max" type="cv" probability="0.00036" />
        <flow id="23_1" begin="0.00" end="4400.00" route="23" departLane="best" departSpeed="max" type="car" probability="0.00054" />
        <flow id="24_0" begin="0.00" end="4400.00" route="24" departLane="best" departSpeed="max" type="cv" probability="0.00092" />
        <flow id="24_1" begin="0.00" end="4400.00" route="24" departLane="best" departSpeed="max" type="car" probability="0.00138" />
        <flow id="25_0" begin="0.00" end="4400.00" route="25" departLane="best" departSpeed="max" type="cv" probability="0.00072" />
        <flow id="25_1" begin="0.00" end="4400.00" route="25" departLane="best" departSpeed="max" type="car" probability="0.00108" />
        <flow id="26_0" begin="0.00" end="4400.00" route="26" departLane="best" departSpeed="max" type="cv" probability="0.00136" />
        <flow id="26_1" begin="0.00" end="4400.00" route="26" departLane="best" departSpeed="max" type="car" probability="0.00204" />
        <flow id="27_0" begin="0.00" end="4400.00" route="27" departLane="best" departSpeed="max" type="cv" probability="0.00044" />
        <flow id="27_1" begin="0.00" end="4400.00" route="27" departLane="best" departSpeed="max" type="car" probability="0.00066" />
        <flow id="28_0" begin="0.00" end="4400.00" route="28" departLane="best" departSpeed="max" type="cv" probability="0.0008" />
        <flow id="28_1" begin="0.00" end="4400.00" route="28" departLane="best" departSpeed="max" type="car" probability="0.0012" />
        <flow id="29_0" begin="0.00" end="4400.00" route="29" departLane="best" departSpeed="max" type="cv" probability="0.05772" />
        <flow id="29_1" begin="0.00" end="4400.00" route="29" departLane="best" departSpeed="max" type="car" probability="0.08658" />
        <flow id="30_0" begin="0.00" end="4400.00" route="30" departLane="best" departSpeed="max" type="cv" probability="0.00128" />
        <flow id="30_1" begin="0.00" end="4400.00" route="30" departLane="best" departSpeed="max" type="car" probability="0.00192" />
        <flow id="31_0" begin="0.00" end="4400.00" route="31" departLane="best" departSpeed="max" type="cv" probability="0.00156" />
        <flow id="31_1" begin="0.00" end="4400.00" route="31" departLane="best" departSpeed="max" type="car" probability="0.00234" />
        <flow id="32_0" begin="0.00" end="4400.00" route="32" departLane="best" departSpeed="max" type="cv" probability="0.00892" />
        <flow id="32_1" begin="0.00" end="4400.00" route="32" departLane="best" departSpeed="max" type="car" probability="0.01338" />
        <flow id="33_0" begin="0.00" end="4400.00" route="33" departLane="best" departSpeed="max" type="cv" probability="0.00428" />
        <flow id="33_1" begin="0.00" end="4400.00" route="33" departLane="best" departSpeed="max" type="car" probability="0.00642" />
        <flow id="34_0" begin="0.00" end="4400.00" route="34" departLane="best" departSpeed="max" type="cv" probability="0.00072" />
        <flow id="34_1" begin="0.00" end="4400.00" route="34" departLane="best" departSpeed="max" type="car" probability="0.00108" />
        <flow id="35_0" begin="0.00" end="4400.00" route="35" departLane="best" departSpeed="max" type="cv" probability="0.00064" />
        <flow id="35_1" begin="0.00" end="4400.00" route="35" departLane="best" departSpeed="max" type="car" probability="0.00096" />
        <flow id="36_0" begin="0.00" end="4400.00" route="36" departLane="best" departSpeed="max" type="cv" probability="0.001" />
        <flow id="36_1" begin="0.00" end="4400.00" route="36" departLane="best" departSpeed="max" type="car" probability="0.0015" />
        <flow id="37_0" begin="0.00" end="4400.00" route="37" departLane="best" departSpeed="max" type="cv" probability="0.0012" />
        <flow id="37_1" begin="0.00" end="4400.00" route="37" departLane="best" departSpeed="max" type="car" probability="0.0018" />
        <flow id="38_0" begin="0.00" end="4400.00" route="38" departLane="best" departSpeed="max" type="cv" probability="0.05772" />
        <flow id="38_1" begin="0.00" end="4400.00" route="38" departLane="best" departSpeed="max" type="car" probability="0.08658" />
        <flow id="39_0" begin="0.00" end="4400.00" route="39" departLane="best" departSpeed="max" type="cv" probability="0.00164" />
        <flow id="39_1" begin="0.00" end="4400.00" route="39" departLane="best" departSpeed="max" type="car" probability="0.00246" />
        <flow id="40_0" begin="0.00" end="4400.00" route="40" departLane="best" departSpeed="max" type="cv" probability="0.00128" />
        <flow id="40_1" begin="0.00" end="4400.00" route="40" departLane="best" departSpeed="max" type="car" probability="0.00192" />
        <flow id="41_0" begin="0.00" end="4400.00" route="41" departLane="best" departSpeed="max" type="cv" probability="0.0018" />
        <flow id="41_1" begin="0.00" end="4400.00" route="41" departLane="best" departSpeed="max" type="car" probability="0.0027" />
        <flow id="42_0" begin="0.00" end="4400.00" route="42" departLane="best" departSpeed="max" type="cv" probability="0.00072" />
        <flow id="42_1" begin="0.00" end="4400.00" route="42" departLane="best" departSpeed="max" type="car" probability="0.00108" />
        <flow id="43_0" begin="0.00" end="4400.00" route="43" departLane="best" departSpeed="max" type="cv" probability="0.00628" />
        <flow id="43_1" begin="0.00" end="4400.00" route="43" departLane="best" departSpeed="max" type="car" probability="0.00942" />
        <flow id="44_0" begin="0.00" end="4400.00" route="44" departLane="best" departSpeed="max" type="cv" probability="0.00572" />
        <flow id="44_1" begin="0.00" end="4400.00" route="44" departLane="best" departSpeed="max" type="car" probability="0.00858" />
        <flow id="45_0" begin="0.00" end="4400.00" route="45" departLane="best" departSpeed="max" type="cv" probability="0.00092" />
        <flow id="45_1" begin="0.00" end="4400.00" route="45" departLane="best" departSpeed="max" type="car" probability="0.00138" />
        <flow id="46_0" begin="0.00" end="4400.00" route="46" departLane="best" departSpeed="max" type="cv" probability="0.0012" />
        <flow id="46_1" begin="0.00" end="4400.00" route="46" departLane="best" departSpeed="max" type="car" probability="0.0018" />
        <flow id="47_0" begin="0.00" end="4400.00" route="47" departLane="best" departSpeed="max" type="cv" probability="0.05772" />
        <flow id="47_1" begin="0.00" end="4400.00" route="47" departLane="best" departSpeed="max" type="car" probability="0.08658" />
        <flow id="48_0" begin="0.00" end="4400.00" route="48" departLane="best" departSpeed="max" type="cv" probability="0.00192" />
        <flow id="48_1" begin="0.00" end="4400.00" route="48" departLane="best" departSpeed="max" type="car" probability="0.00288" />
        <flow id="49_0" begin="0.00" end="4400.00" route="49" departLane="best" departSpeed="max" type="cv" probability="0.00108" />
        <flow id="49_1" begin="0.00" end="4400.00" route="49" departLane="best" departSpeed="max" type="car" probability="0.00162" />
        <flow id="50_0" begin="0.00" end="4400.00" route="50" departLane="best" departSpeed="max" type="cv" probability="0.00108" />
        <flow id="50_1" begin="0.00" end="4400.00" route="50" departLane="best" departSpeed="max" type="car" probability="0.00162" />
        <flow id="51_0" begin="0.00" end="4400.00" route="51" departLane="best" departSpeed="max" type="cv" probability="0.00064" />
        <flow id="51_1" begin="0.00" end="4400.00" route="51" departLane="best" departSpeed="max" type="car" probability="0.00096" />
        <flow id="52_0" begin="0.00" end="4400.00" route="52" departLane="best" departSpeed="max" type="cv" probability="0.00128" />
        <flow id="52_1" begin="0.00" end="4400.00" route="52" departLane="best" departSpeed="max" type="car" probability="0.00192" />
        <flow id="53_0" begin="0.00" end="4400.00" route="53" departLane="best" departSpeed="max" type="cv" probability="0.00036" />
        <flow id="53_1" begin="0.00" end="4400.00" route="53" departLane="best" departSpeed="max" type="car" probability="0.00054" />
        <flow id="54_0" begin="0.00" end="4400.00" route="54" departLane="best" departSpeed="max" type="cv" probability="0.00536" />
        <flow id="54_1" begin="0.00" end="4400.00" route="54" departLane="best" departSpeed="max" type="car" probability="0.00804" />
        <flow id="55_0" begin="0.00" end="4400.00" route="55" departLane="best" departSpeed="max" type="cv" probability="0.0078" />
        <flow id="55_1" begin="0.00" end="4400.00" route="55" departLane="best" departSpeed="max" type="car" probability="0.0117" />
        <flow id="56_0" begin="0.00" end="4400.00" route="56" departLane="best" departSpeed="max" type="cv" probability="0.05772" />
        <flow id="56_1" begin="0.00" end="4400.00" route="56" departLane="best" departSpeed="max" type="car" probability="0.08658" />
        <flow id="57_0" begin="0.00" end="4400.00" route="57" departLane="best" departSpeed="max" type="cv" probability="0.0022" />
        <flow id="57_1" begin="0.00" end="4400.00" route="57" departLane="best" departSpeed="max" type="car" probability="0.0033" />
        <flow id="58_0" begin="0.00" end="4400.00" route="58" departLane="best" departSpeed="max" type="cv" probability="0.00128" />
        <flow id="58_1" begin="0.00" end="4400.00" route="58" departLane="best" departSpeed="max" type="car" probability="0.00192" />
        <flow id="59_0" begin="0.00" end="4400.00" route="59" departLane="best" departSpeed="max" type="cv" probability="0.00136" />
        <flow id="59_1" begin="0.00" end="4400.00" route="59" departLane="best" departSpeed="max" type="car" probability="0.00204" />
        <flow id="60_0" begin="0.00" end="4400.00" route="60" departLane="best" departSpeed="max" type="cv" probability="0.0008" />
        <flow id="60_1" begin="0.00" end="4400.00" route="60" departLane="best" departSpeed="max" type="car" probability="0.0012" />
        <flow id="61_0" begin="0.00" end="4400.00" route="61" departLane="best" departSpeed="max" type="cv" probability="0.0012" />
        <flow id="61_1" begin="0.00" end="4400.00" route="61" departLane="best" departSpeed="max" type="car" probability="0.0018" />
        <flow id="62_0" begin="0.00" end="4400.00" route="62" departLane="best" departSpeed="max" type="cv" probability="0.00072" />
        <flow id="62_1" begin="0.00" end="4400.00" route="62" departLane="best" departSpeed="max" type="car" probability="0.00108" />
        <flow id="63_0" begin="0.00" end="4400.00" route="63" departLane="best" departSpeed="max" type="cv" probability="0.00028" />
        <flow id="63_1" begin="0.00" end="4400.00" route="63" departLane="best" departSpeed="max" type="car" probability="0.00042" />
        <flow id="64_0" begin="0.00" end="4400.00" route="64" departLane="best" departSpeed="max" type="cv" probability="0.00056" />
        <flow id="64_1" begin="0.00" end="4400.00" route="64" departLane="best" departSpeed="max" type="car" probability="0.00084" />
        <flow id="65_0" begin="0.00" end="4400.00" route="65" departLane="best" departSpeed="max" type="cv" probability="0.00336" />
        <flow id="65_1" begin="0.00" end="4400.00" route="65" departLane="best" departSpeed="max" type="car" probability="0.00504" />
        <flow id="66_0" begin="0.00" end="4400.00" route="66" departLane="best" departSpeed="max" type="cv" probability="0.00392" />
        <flow id="66_1" begin="0.00" end="4400.00" route="66" departLane="best" departSpeed="max" type="car" probability="0.00588" />
        <flow id="67_0" begin="0.00" end="4400.00" route="67" departLane="best" departSpeed="max" type="cv" probability="0.0008" />
        <flow id="67_1" begin="0.00" end="4400.00" route="67" departLane="best" departSpeed="max" type="car" probability="0.0012" />
        <flow id="68_0" begin="0.00" end="4400.00" route="68" departLane="best" departSpeed="max" type="cv" probability="0.00092" />
        <flow id="68_1" begin="0.00" end="4400.00" route="68" departLane="best" departSpeed="max" type="car" probability="0.00138" />
        <flow id="69_0" begin="0.00" end="4400.00" route="69" departLane="best" departSpeed="max" type="cv" probability="0.00056" />
        <flow id="69_1" begin="0.00" end="4400.00" route="69" departLane="best" departSpeed="max" type="car" probability="0.00084" />
        <flow id="70_0" begin="0.00" end="4400.00" route="70" departLane="best" departSpeed="max" type="cv" probability="0.00092" />
        <flow id="70_1" begin="0.00" end="4400.00" route="70" departLane="best" departSpeed="max" type="car" probability="0.00138" />
        <flow id="71_0" begin="0.00" end="4400.00" route="71" departLane="best" departSpeed="max" type="cv" probability="0.00072" />
        <flow id="71_1" begin="0.00" end="4400.00" route="71" departLane="best" departSpeed="max" type="car" probability="0.00108" />
        <flow id="72_0" begin="0.00" end="4400.00" route="72" departLane="best" departSpeed="max" type="cv" probability="0.00128" />
        <flow id="72_1" begin="0.00" end="4400.00" route="72" departLane="best" departSpeed="max" type="car" probability="0.00192" />
        <flow id="73_0" begin="0.00" end="4400.00" route="73" departLane="best" departSpeed="max" type="cv" probability="0.0008" />
        <flow id="73_1" begin="0.00" end="4400.00" route="73" departLane="best" departSpeed="max" type="car" probability="0.0012" />
        <flow id="74_0" begin="0.00" end="4400.00" route="74" departLane="best" departSpeed="max" type="cv" probability="0.0018" />
        <flow id="74_1" begin="0.00" end="4400.00" route="74" departLane="best" departSpeed="max" type="car" probability="0.0027" />
        <flow id="75_0" begin="0.00" end="4400.00" route="75" departLane="best" departSpeed="max" type="cv" probability="0.05772" />
        <flow id="75_1" begin="0.00" end="4400.00" route="75" departLane="best" departSpeed="max" type="car" probability="0.08658" />
        <flow id="76_0" begin="0.00" end="4400.00" route="76" departLane="best" departSpeed="max" type="cv" probability="0.0078" />
        <flow id="76_1" begin="0.00" end="4400.00" route="76" departLane="best" departSpeed="max" type="car" probability="0.0117" />
        <flow id="77_0" begin="0.00" end="4400.00" route="77" departLane="best" departSpeed="max" type="cv" probability="0.004" />
        <flow id="77_1" begin="0.00" end="4400.00" route="77" departLane="best" departSpeed="max" type="car" probability="0.006" />
        <flow id="78_0" begin="0.00" end="4400.00" route="78" departLane="best" departSpeed="max" type="cv" probability="0.001" />
        <flow id="78_1" begin="0.00" end="4400.00" route="78" departLane="best" departSpeed="max" type="car" probability="0.0015" />
        <flow id="79_0" begin="0.00" end="4400.00" route="79" departLane="best" departSpeed="max" type="cv" probability="0.0012" />
        <flow id="79_1" begin="0.00" end="4400.00" route="79" departLane="best" departSpeed="max" type="car" probability="0.0018" />
        <flow id="80_0" begin="0.00" end="4400.00" route="80" departLane="best" departSpeed="max" type="cv" probability="0.00072" />
        <flow id="80_1" begin="0.00" end="4400.00" route="80" departLane="best" departSpeed="max" type="car" probability="0.00108" />
        <flow id="81_0" begin="0.00" end="4400.00" route="81" departLane="best" departSpeed="max" type="cv" probability="0.00144" />
        <flow id="81_1" begin="0.00" end="4400.00" route="81" departLane="best" departSpeed="max" type="car" probability="0.00216" />
        <flow id="82_0" begin="0.00" end="4400.00" route="82" departLane="best" departSpeed="max" type="cv" probability="0.00164" />
        <flow id="82_1" begin="0.00" end="4400.00" route="82" departLane="best" departSpeed="max" type="car" probability="0.00246" />
        <flow id="83_0" begin="0.00" end="4400.00" route="83" departLane="best" departSpeed="max" type="cv" probability="0.00172" />
        <flow id="83_1" begin="0.00" end="4400.00" route="83" departLane="best" departSpeed="max" type="car" probability="0.00258" />
        <flow id="84_0" begin="0.00" end="4400.00" route="84" departLane="best" departSpeed="max" type="cv" probability="0.05772" />
        <flow id="84_1" begin="0.00" end="4400.00" route="84" departLane="best" departSpeed="max" type="car" probability="0.08658" />
        <flow id="85_0" begin="0.00" end="4400.00" route="85" departLane="best" departSpeed="max" type="cv" probability="0.0008" />
        <flow id="85_1" begin="0.00" end="4400.00" route="85" departLane="best" departSpeed="max" type="car" probability="0.0012" />
        <flow id="86_0" begin="0.00" end="4400.00" route="86" departLane="best" departSpeed="max" type="cv" probability="0.0012" />
        <flow id="86_1" begin="0.00" end="4400.00" route="86" departLane="best" departSpeed="max" type="car" probability="0.0018" />
        <flow id="87_0" begin="0.00" end="4400.00" route="87" departLane="best" departSpeed="max" type="cv" probability="0.0058" />
        <flow id="87_1" begin="0.00" end="4400.00" route="87" departLane="best" departSpeed="max" type="car" probability="0.0087" />
        <flow id="88_0" begin="0.00" end="4400.00" route="88" departLane="best" departSpeed="max" type="cv" probability="0.00628" />
        <flow id="88_1" begin="0.00" end="4400.00" route="88" departLane="best" departSpeed="max" type="car" probability="0.00942" />
        <flow id="89_0" begin="0.00" end="4400.00" route="89" departLane="best" departSpeed="max" type="cv" probability="0.00064" />
        <flow id="89_1" begin="0.00" end="4400.00" route="89" departLane="best" departSpeed="max" type="car" probability="0.00096" />
        <flow id="90_0" begin="0.00" end="4400.00" route="90" departLane="best" departSpeed="max" type="cv" probability="0.00144" />