<?xml version="1.0" encoding="UTF-8"?>

<!-- generated on 2024-01-30 18:26:23 by Eclipse SUMO netedit Version 1.18.0
<configuration xmlns:xsi="http://www.w3.org/2001/XMLSchema-instance" xsi:noNamespaceSchemaLocation="http://sumo.dlr.de/xsd/neteditConfiguration.xsd">

    <input>
        <sumo-net-file value="D:\Paper Publish\MARL_TSC\MARL_TSC_code\scenarios\h_corridor\h.net.xml"/>
    </input>

    <output>
        <output-file value="D:\Paper Publish\MARL_TSC\MARL_TSC_code\scenarios\h_corridor\h.net.xml"/>
    </output>

    <processing>
        <geometry.min-radius.fix.railways value="false"/>
        <geometry.max-grade.fix value="false"/>
        <offset.disable-normalization value="true"/>
        <lefthand value="0"/>
    </processing>

    <junctions>
        <no-turnarounds value="true"/>
        <junctions.corner-detail value="5"/>
        <junctions.limit-turn-speed value="5.50"/>
        <rectangular-lane-cut value="0"/>
    </junctions>

    <pedestrian>
        <walkingareas value="0"/>
    </pedestrian>

</configuration>
-->

<net version="1.16" junctionCornerDetail="5" limitTurnSpeed="5.50" xmlns:xsi="http://www.w3.org/2001/XMLSchema-instance" xsi:noNamespaceSchemaLocation="http://sumo.dlr.de/xsd/net_file.xsd">

    <location netOffset="0.00,500.00" convBoundary="0.00,0.00,3000.00,1000.00" origBoundary="0.00,-500.00,3000.00,500.00" projParameter="!"/>

    <edge id=":h2_0" function="internal">
        <lane id=":h2_0_0" index="0" speed="6.51" length="9.03" shape="492.00,513.60 491.65,511.15 490.60,509.40 488.85,508.35 486.40,508.00"/>
    </edge>
    <edge id=":h2_1" function="internal">
        <lane id=":h2_1_0" index="0" speed="20.00" length="27.20" shape="495.20,513.60 495.20,486.40"/>
    </edge>
    <edge id=":h2_2" function="internal">
        <lane id=":h2_2_0" index="0" speed="10.36" length="24.51" shape="498.40,513.60 499.35,506.95 502.20,502.20 506.95,499.35 513.60,498.40"/>
    </edge>
    <edge id=":h2_3" function="internal">
        <lane id=":h2_3_0" index="0" speed="6.51" length="9.03" shape="513.60,508.00 511.15,508.35 509.40,509.40 508.35,511.15 508.00,513.60"/>
    </edge>
    <edge id=":h2_4" function="internal">
        <lane id=":h2_4_0" index="0" speed="20.00" length="27.20" shape="513.60,504.80 486.40,504.80"/>
    </edge>
    <edge id=":h2_5" function="internal">
        <lane id=":h2_5_0" index="0" speed="10.36" length="24.51" shape="513.60,501.60 506.95,500.65 502.20,497.80 499.35,493.05 498.40,486.40"/>
    </edge>
    <edge id=":h2_6" function="internal">
        <lane id=":h2_6_0" index="0" speed="6.51" length="9.03" shape="508.00,486.40 508.35,488.85 509.40,490.60 511.15,491.65 513.60,492.00"/>
    </edge>
    <edge id=":h2_7" function="internal">
        <lane id=":h2_7_0" index="0" speed="20.00" length="27.20" shape="504.80,486.40 504.80,513.60"/>
    </edge>
    <edge id=":h2_8" function="internal">
        <lane id=":h2_8_0" index="0" speed="10.36" length="24.51" shape="501.60,486.40 500.65,493.05 497.80,497.80 493.05,500.65 486.40,501.60"/>
    </edge>
    <edge id=":h2_9" function="internal">
        <lane id=":h2_9_0" index="0" speed="6.51" length="9.03" shape="486.40,492.00 488.85,491.65 490.60,490.60 491.65,488.85 492.00,486.40"/>
    </edge>
    <edge id=":h2_10" function="internal">
        <lane id=":h2_10_0" index="0" speed="20.00" length="27.20" shape="486.40,495.20 513.60,495.20"/>
    </edge>
    <edge id=":h2_11" function="internal">
        <lane id=":h2_11_0" index="0" speed="10.36" length="24.51" shape="486.40,498.40 493.05,499.35 497.80,502.20 500.65,506.95 501.60,513.60"/>
    </edge>
    <edge id=":h3_0" function="internal">
        <lane id=":h3_0_0" index="0" speed="6.51" length="9.03" shape="992.00,513.60 991.65,511.15 990.60,509.40 988.85,508.35 986.40,508.00"/>
    </edge>
    <edge id=":h3_1" function="internal">
        <lane id=":h3_1_0" index="0" speed="20.00" length="27.20" shape="995.20,513.60 995.20,486.40"/>
    </edge>
    <edge id=":h3_2" function="internal">
        <lane id=":h3_2_0" index="0" speed="10.36" length="12.07" shape="998.40,513.60 999.35,506.95 1002.10,502.36"/>
    </edge>
    <edge id=":h3_12" function="internal">
        <lane id=":h3_12_0" index="0" speed="10.36" length="12.44" shape="1002.10,502.36 1002.20,502.20 1006.95,499.35 1013.60,498.40"/>
    </edge>
    <edge id=":h3_3" function="internal">
        <lane id=":h3_3_0" index="0" speed="6.51" length="9.03" shape="1013.60,508.00 1011.15,508.35 1009.40,509.40 1008.35,511.15 1008.00,513.60"/>
    </edge>
    <edge id=":h3_4" function="internal">
        <lane id=":h3_4_0" index="0" speed="20.00" length="27.20" shape="1013.60,504.80 986.40,504.80"/>
    </edge>
    <edge id=":h3_5" function="internal">
        <lane id=":h3_5_0" index="0" speed="10.36" length="12.07" shape="1013.60,501.60 1006.95,500.65 1002.36,497.90"/>
    </edge>
    <edge id=":h3_13" function="internal">
        <lane id=":h3_13_0" index="0" speed="10.36" length="12.44" shape="1002.36,497.90 1002.20,497.80 999.35,493.05 998.40,486.40"/>
    </edge>
    <edge id=":h3_6" function="internal">
        <lane id=":h3_6_0" index="0" speed="6.51" length="9.03" shape="1008.00,486.40 1008.35,488.85 1009.40,490.60 1011.15,491.65 1013.60,492.00"/>
    </edge>
    <edge id=":h3_7" function="internal">
        <lane id=":h3_7_0" index="0" speed="20.00" length="27.20" shape="1004.80,486.40 1004.80,513.60"/>
    </edge>
    <edge id=":h3_8" function="internal">
        <lane id=":h3_8_0" index="0" speed="10.36" length="12.07" shape="1001.60,486.40 1000.65,493.05 997.90,497.64"/>
    </edge>
    <edge id=":h3_14" function="internal">
        <lane id=":h3_14_0" index="0" speed="10.36" length="12.44" shape="997.90,497.64 997.80,497.80 993.05,500.65 986.40,501.60"/>
    </edge>
    <edge id=":h3_9" function="internal">
        <lane id=":h3_9_0" index="0" speed="6.51" length="9.03" shape="986.40,492.00 988.85,491.65 990.60,490.60 991.65,488.85 992.00,486.40"/>
    </edge>
    <edge id=":h3_10" function="internal">
        <lane id=":h3_10_0" index="0" speed="20.00" length="27.20" shape="986.40,495.20 1013.60,495.20"/>
    </edge>
    <edge id=":h3_11" function="internal">
        <lane id=":h3_11_0" index="0" speed="10.36" length="12.07" shape="986.40,498.40 993.05,499.35 997.64,502.10"/>
    </edge>
    <edge id=":h3_15" function="internal">
        <lane id=":h3_15_0" index="0" speed="10.36" length="12.44" shape="997.64,502.10 997.80,502.20 1000.65,506.95 1001.60,513.60"/>
    </edge>
    <edge id=":h4_0" function="internal">
        <lane id=":h4_0_0" index="0" speed="6.51" length="9.03" shape="1492.00,513.60 1491.65,511.15 1490.60,509.40 1488.85,508.35 1486.40,508.00"/>
    </edge>
    <edge id=":h4_1" function="internal">
        <lane id=":h4_1_0" index="0" speed="20.00" length="27.20" shape="1495.20,513.60 1495.20,486.40"/>
    </edge>
    <edge id=":h4_2" function="internal">
        <lane id=":h4_2_0" index="0" speed="10.36" length="12.07" shape="1498.40,513.60 1499.35,506.95 1502.10,502.36"/>
    </edge>
    <edge id=":h4_12" function="internal">
        <lane id=":h4_12_0" index="0" speed="10.36" length="12.44" shape="1502.10,502.36 1502.20,502.20 1506.95,499.35 1513.60,498.40"/>
    </edge>
    <edge id=":h4_3" function="internal">
        <lane id=":h4_3_0" index="0" speed="6.51" length="9.03" shape="1513.60,508.00 1511.15,508.35 1509.40,509.40 1508.35,511.15 1508.00,513.60"/>
    </edge>
    <edge id=":h4_4" function="internal">
        <lane id=":h4_4_0" index="0" speed="20.00" length="27.20" shape="1513.60,504.80 1486.40,504.80"/>
    </edge>
    <edge id=":h4_5" function="internal">
        <lane id=":h4_5_0" index="0" speed="10.36" length="12.07" shape="1513.60,501.60 1506.95,500.65 1502.36,497.90"/>
    </edge>
    <edge id=":h4_13" function="internal">
        <lane id=":h4_13_0" index="0" speed="10.36" length="12.44" shape="1502.36,497.90 1502.20,497.80 1499.35,493.05 1498.40,486.40"/>
    </edge>
    <edge id=":h4_6" function="internal">
        <lane id=":h4_6_0" index="0" speed="6.51" length="9.03" shape="1508.00,486.40 1508.35,488.85 1509.40,490.60 1511.15,491.65 1513.60,492.00"/>
    </edge>
    <edge id=":h4_7" function="internal">
        <lane id=":h4_7_0" index="0" speed="20.00" length="27.20" shape="1504.80,486.40 1504.80,513.60"/>
    </edge>
    <edge id=":h4_8" function="internal">
        <lane id=":h4_8_0" index="0" speed="10.36" length="12.07" shape="1501.60,486.40 1500.65,493.05 1497.90,497.64"/>
    </edge>
    <edge id=":h4_14" function="internal">
        <lane id=":h4_14_0" index="0" speed="10.36" length="12.44" shape="1497.90,497.64 1497.80,497.80 1493.05,500.65 1486.40,501.60"/>
    </edge>
    <edge id=":h4_9" function="internal">
        <lane id=":h4_9_0" index="0" speed="6.51" length="9.03" shape="1486.40,492.00 1488.85,491.65 1490.60,490.60 1491.65,488.85 1492.00,486.40"/>
    </edge>
    <edge id=":h4_10" function="internal">
        <lane id=":h4_10_0" index="0" speed="20.00" length="27.20" shape="1486.40,495.20 1513.60,495.20"/>
    </edge>
    <edge id=":h4_11" function="internal">
        <lane id=":h4_11_0" index="0" speed="10.36" length="12.07" shape="1486.40,498.40 1493.05,499.35 1497.64,502.10"/>
    </edge>
    <edge id=":h4_15" function="internal">
        <lane id=":h4_15_0" index="0" speed="10.36" length="12.44" shape="1497.64,502.10 1497.80,502.20 1500.65,506.95 1501.60,513.60"/>
    </edge>
    <edge id=":h5_0" function="internal">
        <lane id=":h5_0_0" index="0" speed="6.51" length="9.03" shape="1992.00,513.60 1991.65,511.15 1990.60,509.40 1988.85,508.35 1986.40,508.00"/>
    </edge>
    <edge id=":h5_1" function="internal">
        <lane id=":h5_1_0" index="0" speed="20.00" length="27.20" shape="1995.20,513.60 1995.20,486.40"/>
    </edge>
    <edge id=":h5_2" function="internal">
        <lane id=":h5_2_0" index="0" speed="10.36" length="12.07" shape="1998.40,513.60 1999.35,506.95 2002.10,502.36"/>
    </edge>
    <edge id=":h5_12" function="internal">
        <lane id=":h5_12_0" index="0" speed="10.36" length="12.44" shape="2002.10,502.36 2002.20,502.20 2006.95,499.35 2013.60,498.40"/>
    </edge>
    <edge id=":h5_3" function="internal">
        <lane id=":h5_3_0" index="0" speed="6.51" length="9.03" shape="2013.60,508.00 2011.15,508.35 2009.40,509.40 2008.35,511.15 2008.00,513.60"/>
    </edge>
    <edge id=":h5_4" function="internal">
        <lane id=":h5_4_0" index="0" speed="20.00" length="27.20" shape="2013.60,504.80 1986.40,504.80"/>
    </edge>
    <edge id=":h5_5" function="internal">
        <lane id=":h5_5_0" index="0" speed="10.36" length="12.07" shape="2013.60,501.60 2006.95,500.65 2002.36,497.90"/>
    </edge>
    <edge id=":h5_13" function="internal">
        <lane id=":h5_13_0" index="0" speed="10.36" length="12.44" shape="2002.36,497.90 2002.20,497.80 1999.35,493.05 1998.40,486.40"/>
    </edge>
    <edge id=":h5_6" function="internal">
        <lane id=":h5_6_0" index="0" speed="6.51" length="9.03" shape="2008.00,486.40 2008.35,488.85 2009.40,490.60 2011.15,491.65 2013.60,492.00"/>
    </edge>
    <edge id=":h5_7" function="internal">
        <lane id=":h5_7_0" index="0" speed="20.00" length="27.20" shape="2004.80,486.40 2004.80,513.60"/>
    </edge>
    <edge id=":h5_8" function="internal">
        <lane id=":h5_8_0" index="0" speed="10.36" length="12.07" shape="2001.60,486.40 2000.65,493.05 1997.90,497.64"/>
    </edge>
    <edge id=":h5_14" function="internal">
        <lane id=":h5_14_0" index="0" speed="10.36" length="12.44" shape="1997.90,497.64 1997.80,497.80 1993.05,500.65 1986.40,501.60"/>
    </edge>
    <edge id=":h5_9" function="internal">
        <lane id=":h5_9_0" index="0" speed="6.51" length="9.03" shape="1986.40,492.00 1988.85,491.65 1990.60,490.60 1991.65,488.85 1992.00,486.40"/>
    </edge>
    <edge id=":h5_10" function="internal">
        <lane id=":h5_10_0" index="0" speed="20.00" length="27.20" shape="1986.40,495.20 2013.60,495.20"/>
    </edge>
    <edge id=":h5_11" function="internal">
        <lane id=":h5_11_0" index="0" speed="10.36" length="12.07" shape="1986.40,498.40 1993.05,499.35 1997.64,502.10"/>
    </edge>
    <edge id=":h5_15" function="internal">
        <lane id=":h5_15_0" index="0" speed="10.36" length="12.44" shape="1997.64,502.10 1997.80,502.20 2000.65,506.95 2001.60,513.60"/>
    </edge>
    <edge id=":h6_0" function="internal">
        <lane id=":h6_0_0" index="0" speed="6.51" length="9.03" shape="2492.00,513.60 2491.65,511.15 2490.60,509.40 2488.85,508.35 2486.40,508.00"/>
    </edge>
    <edge id=":h6_1" function="internal">
        <lane id=":h6_1_0" index="0" speed="20.00" length="27.20" shape="2495.20,513.60 2495.20,486.40"/>
    </edge>
    <edge id=":h6_2" function="internal">
        <lane id=":h6_2_0" index="0" speed="10.36" length="12.07" shape="2498.40,513.60 2499.35,506.95 2502.10,502.36"/>
    </edge>
    <edge id=":h6_12" function="internal">
        <lane id=":h6_12_0" index="0" speed="10.36" length="12.44" shape="2502.10,502.36 2502.20,502.20 2506.95,499.35 2513.60,498.40"/>
    </edge>
    <edge id=":h6_3" function="internal">
        <lane id=":h6_3_0" index="0" speed="6.51" length="9.03" shape="2513.60,508.00 2511.15,508.35 2509.40,509.40 2508.35,511.15 2508.00,513.60"/>
    </edge>
    <edge id=":h6_4" function="internal">
        <lane id=":h6_4_0" index="0" speed="20.00" length="27.20" shape="2513.60,504.80 2486.40,504.80"/>
    </edge>
    <edge id=":h6_5" function="internal">
        <lane id=":h6_5_0" index="0" speed="10.36" length="12.07" shape="2513.60,501.60 2506.95,500.65 2502.36,497.90"/>
    </edge>
    <edge id=":h6_13" function="internal">
        <lane id=":h6_13_0" index="0" speed="10.36" length="12.44" shape="2502.36,497.90 2502.20,497.80 2499.35,493.05 2498.40,486.40"/>
    </edge>
    <edge id=":h6_6" function="internal">
        <lane id=":h6_6_0" index="0" speed="6.51" length="9.03" shape="2508.00,486.40 2508.35,488.85 2509.40,490.60 2511.15,491.65 2513.60,492.00"/>
    </edge>
    <edge id=":h6_7" function="internal">
        <lane id=":h6_7_0" index="0" speed="20.00" length="27.20" shape="2504.80,486.40 2504.80,513.60"/>
    </edge>
    <edge id=":h6_8" function="internal">
        <lane id=":h6_8_0" index="0" speed="10.36" length="12.07" shape="2501.60,486.40 2500.65,493.05 2497.90,497.64"/>
    </edge>
    <edge id=":h6_14" function="internal">
        <lane id=":h6_14_0" index="0" speed="10.36" length="12.44" shape="2497.90,497.64 2497.80,497.80 2493.05,500.65 2486.40,501.60"/>
    </edge>
    <edge id=":h6_9" function="internal">
        <lane id=":h6_9_0" index="0" speed="6.51" length="9.03" shape="2486.40,492.00 2488.85,491.65 2490.60,490.60 2491.65,488.85 2492.00,486.40"/>
    </edge>
    <edge id=":h6_10" function="internal">
        <lane id=":h6_10_0" index="0" speed="20.00" length="27.20" shape="2486.40,495.20 2513.60,495.20"/>
    </edge>
    <edge id=":h6_11" function="internal">
        <lane id=":h6_11_0" index="0" speed="10.36" length="12.07" shape="2486.40,498.40 2493.05,499.35 2497.64,502.10"/>
    </edge>
    <edge id=":h6_15" function="internal">
        <lane id=":h6_15_0" index="0" speed="10.36" length="12.44" shape="2497.64,502.10 2497.80,502.20 2500.65,506.95 2501.60,513.60"/>
    </edge>

    <edge id="e1" from="h1" to="h2" priority="-1">
        <lane id="e1_0" index="0" speed="20.00" length="486.40" shape="0.00,492.00 486.40,492.00"/>
        <lane id="e1_1" index="1" speed="20.00" length="486.40" shape="0.00,495.20 486.40,495.20"/>
        <lane id="e1_2" index="2" speed="20.00" length="486.40" shape="0.00,498.40 486.40,498.40"/>
    </edge>
    <edge id="e2" from="h2" to="h3" priority="-1">
        <lane id="e2_0" index="0" speed="20.00" length="472.80" shape="513.60,492.00 986.40,492.00"/>
        <lane id="e2_1" index="1" speed="20.00" length="472.80" shape="513.60,495.20 986.40,495.20"/>
        <lane id="e2_2" index="2" speed="20.00" length="472.80" shape="513.60,498.40 986.40,498.40"/>
    </edge>
    <edge id="e3" from="h3" to="h4" priority="-1">
        <lane id="e3_0" index="0" speed="20.00" length="472.80" shape="1013.60,492.00 1486.40,492.00"/>
        <lane id="e3_1" index="1" speed="20.00" length="472.80" shape="1013.60,495.20 1486.40,495.20"/>
        <lane id="e3_2" index="2" speed="20.00" length="472.80" shape="1013.60,498.40 1486.40,498.40"/>
    </edge>
    <edge id="e4" from="h4" to="h5" priority="-1">
        <lane id="e4_0" index="0" speed="20.00" length="472.80" shape="1513.60,492.00 1986.40,492.00"/>
        <lane id="e4_1" index="1" speed="20.00" length="472.80" shape="1513.60,495.20 1986.40,495.20"/>
        <lane id="e4_2" index="2" speed="20.00" length="472.80" shape="1513.60,498.40 1986.40,498.40"/>
    </edge>
    <edge id="e5" from="h5" to="h6" priority="-1">
        <lane id="e5_0" index="0" speed="20.00" length="472.80" shape="2013.60,492.00 2486.40,492.00"/>
        <lane id="e5_1" index="1" speed="20.00" length="472.80" shape="2013.60,495.20 2486.40,495.20"/>
        <lane id="e5_2" index="2" speed="20.00" length="472.80" shape="2013.60,498.40 2486.40,498.40"/>
    </edge>
    <edge id="e6" from="h6" to="h7" priority="-1">
        <lane id="e6_0" index="0" speed="20.00" length="486.40" shape="2513.60,492.00 3000.00,492.00"/>
        <lane id="e6_1" index="1" speed="20.00" length="486.40" shape="2513.60,495.20 3000.00,495.20"/>
        <lane id="e6_2" index="2" speed="20.00" length="486.40" shape="2513.60,498.40 3000.00,498.40"/>
    </edge>
    <edge id="hn2" from="h2" to="n2" priority="-1">
        <lane id="hn2_0" index="0" speed="20.00" length="486.40" shape="508.00,513.60 508.00,1000.00"/>
        <lane id="hn2_1" index="1" speed="20.00" length="486.40" shape="504.80,513.60 504.80,1000.00"/>
        <lane id="hn2_2" index="2" speed="20.00" length="486.40" shape="501.60,513.60 501.60,1000.00"/>
    </edge>
    <edge id="hn3" from="h3" to="n3" priority="-1">
        <lane id="hn3_0" index="0" speed="20.00" length="486.40" shape="1008.00,513.60 1008.00,1000.00"/>
        <lane id="hn3_1" index="1" speed="20.00" length="486.40" shape="1004.80,513.60 1004.80,1000.00"/>
        <lane id="hn3_2" index="2" speed="20.00" length="486.40" shape="1001.60,513.60 1001.60,1000.00"/>
    </edge>
    <edge id="hn4" from="h4" to="n4" priority="-1">
        <lane id="hn4_0" index="0" speed="20.00" length="486.40" shape="1508.00,513.60 1508.00,1000.00"/>
        <lane id="hn4_1" index="1" speed="20.00" length="486.40" shape="1504.80,513.60 1504.80,1000.00"/>
        <lane id="hn4_2" index="2" speed="20.00" length="486.40" shape="1501.60,513.60 1501.60,1000.00"/>
    </edge>
    <edge id="hn5" from="h5" to="n5" priority="-1">
        <lane id="hn5_0" index="0" speed="20.00" length="486.40" shape="2008.00,513.60 2008.00,1000.00"/>
        <lane id="hn5_1" index="1" speed="20.00" length="486.40" shape="2004.80,513.60 2004.80,1000.00"/>
        <lane id="hn5_2" index="2" speed="20.00" length="486.40" shape="2001.60,513.60 2001.60,1000.00"/>
    </edge>
    <edge id="hn6" from="h6" to="n6" priority="-1">
        <lane id="hn6_0" index="0" speed="20.00" length="486.40" shape="2508.00,513.60 2508.00,1000.00"/>
        <lane id="hn6_1" index="1" speed="20.00" length="486.40" shape="2504.80,513.60 2504.80,1000.00"/>
        <lane id="hn6_2" index="2" speed="20.00" length="486.40" shape="2501.60,513.60 2501.60,1000.00"/>
    </edge>
    <edge id="hs2" from="h2" to="s2" priority="-1">
        <lane id="hs2_0" index="0" speed="20.00" length="486.40" shape="492.00,486.40 492.00,0.00"/>
        <lane id="hs2_1" index="1" speed="20.00" length="486.40" shape="495.20,486.40 495.20,0.00"/>
        <lane id="hs2_2" index="2" speed="20.00" length="486.40" shape="498.40,486.40 498.40,0.00"/>
    </edge>
    <edge id="hs3" from="h3" to="s3" priority="-1">
        <lane id="hs3_0" index="0" speed="20.00" length="486.40" shape="992.00,486.40 992.00,0.00"/>
        <lane id="hs3_1" index="1" speed="20.00" length="486.40" shape="995.20,486.40 995.20,0.00"/>
        <lane id="hs3_2" index="2" speed="20.00" length="486.40" shape="998.40,486.40 998.40,0.00"/>
    </edge>
    <edge id="hs4" from="h4" to="s4" priority="-1">
        <lane id="hs4_0" index="0" speed="20.00" length="486.40" shape="1492.00,486.40 1492.00,0.00"/>
        <lane id="hs4_1" index="1" speed="20.00" length="486.40" shape="1495.20,486.40 1495.20,0.00"/>
        <lane id="hs4_2" index="2" speed="20.00" length="486.40" shape="1498.40,486.40 1498.40,0.00"/>
    </edge>
    <edge id="hs5" from="h5" to="s5" priority="-1">
        <lane id="hs5_0" index="0" speed="20.00" length="486.40" shape="1992.00,486.40 1992.00,0.00"/>
        <lane id="hs5_1" index="1" speed="20.00" length="486.40" shape="1995.20,486.40 1995.20,0.00"/>
        <lane id="hs5_2" index="2" speed="20.00" length="486.40" shape="1998.40,486.40 1998.40,0.00"/>
    </edge>
    <edge id="hs6" from="h6" to="s6" priority="-1">
        <lane id="hs6_0" index="0" speed="20.00" length="486.40" shape="2492.00,486.40 2492.00,0.00"/>
        <lane id="hs6_1" index="1" speed="20.00" length="486.40" shape="2495.20,486.40 2495.20,0.00"/>
        <lane id="hs6_2" index="2" speed="20.00" length="486.40" shape="2498.40,486.40 2498.40,0.00"/>
    </edge>
    <edge id="nh2" from="n2" to="h2" priority="-1">
        <lane id="nh2_0" index="0" speed="20.00" length="486.40" shape="492.00,1000.00 492.00,513.60"/>
        <lane id="nh2_1" index="1" speed="20.00" length="486.40" shape="495.20,1000.00 495.20,513.60"/>
        <lane id="nh2_2" index="2" speed="20.00" length="486.40" shape="498.40,1000.00 498.40,513.60"/>
    </edge>
    <edge id="nh3" from="n3" to="h3" priority="-1">
        <lane id="nh3_0" index="0" speed="20.00" length="486.40" shape="992.00,1000.00 992.00,513.60"/>
        <lane id="nh3_1" index="1" speed="20.00" length="486.40" shape="995.20,1000.00 995.20,513.60"/>
        <lane id="nh3_2" index="2" speed="20.00" length="486.40" shape="998.40,1000.00 998.40,513.60"/>
    </edge>
    <edge id="nh4" from="n4" to="h4" priority="-1">
        <lane id="nh4_0" index="0" speed="20.00" length="486.40" shape="1492.00,1000.00 1492.00,513.60"/>
        <lane id="nh4_1" index="1" speed="20.00" length="486.40" shape="1495.20,1000.00 1495.20,513.60"/>
        <lane id="nh4_2" index="2" speed="20.00" length="486.40" shape="1498.40,1000.00 1498.40,513.60"/>
    </edge>
    <edge id="nh5" from="n5" to="h5" priority="-1">
        <lane id="nh5_0" index="0" speed="20.00" length="486.40" shape="1992.00,1000.00 1992.00,513.60"/>
        <lane id="nh5_1" index="1" speed="20.00" length="486.40" shape="1995.20,1000.00 1995.20,513.60"/>
        <lane id="nh5_2" index="2" speed="20.00" length="486.40" shape="1998.40,1000.00 1998.40,513.60"/>
    </edge>
    <edge id="nh6" from="n6" to="h6" priority="-1">
        <lane id="nh6_0" index="0" speed="20.00" length="486.40" shape="2492.00,1000.00 2492.00,513.60"/>
        <lane id="nh6_1" index="1" speed="20.00" length="486.40" shape="2495.20,1000.00 2495.20,513.60"/>
        <lane id="nh6_2" index="2" speed="20.00" length="486.40" shape="2498.40,1000.00 2498.40,513.60"/>
    </edge>
    <edge id="sh2" from="s2" to="h2" priority="-1">
        <lane id="sh2_0" index="0" speed="20.00" length="486.40" shape="508.00,0.00 508.00,486.40"/>
        <lane id="sh2_1" index="1" speed="20.00" length="486.40" shape="504.80,0.00 504.80,486.40"/>
        <lane id="sh2_2" index="2" speed="20.00" length="486.40" shape="501.60,0.00 501.60,486.40"/>
    </edge>
    <edge id="sh3" from="s3" to="h3" priority="-1">
        <lane id="sh3_0" index="0" speed="20.00" length="486.40" shape="1008.00,0.00 1008.00,486.40"/>
        <lane id="sh3_1" index="1" speed="20.00" length="486.40" shape="1004.80,0.00 1004.80,486.40"/>
        <lane id="sh3_2" index="2" speed="20.00" length="486.40" shape="1001.60,0.00 1001.60,486.40"/>
    </edge>
    <edge id="sh4" from="s4" to="h4" priority="-1">
        <lane id="sh4_0" index="0" speed="20.00" length="486.40" shape="1508.00,0.00 1508.00,486.40"/>
        <lane id="sh4_1" index="1" speed="20.00" length="486.40" shape="1504.80,0.00 1504.80,486.40"/>
        <lane id="sh4_2" index="2" speed="20.00" length="486.40" shape="1501.60,0.00 1501.60,486.40"/>
    </edge>
    <edge id="sh5" from="s5" to="h5" priority="-1">
        <lane id="sh5_0" index="0" speed="20.00" length="486.40" shape="2008.00,0.00 2008.00,486.40"/>
        <lane id="sh5_1" index="1" speed="20.00" length="486.40" shape="2004.80,0.00 2004.80,486.40"/>
        <lane id="sh5_2" index="2" speed="20.00" length="486.40" shape="2001.60,0.00 2001.60,486.40"/>
    </edge>
    <edge id="sh6" from="s6" to="h6" priority="-1">
        <lane id="sh6_0" index="0" speed="20.00" length="486.40" shape="2508.00,0.00 2508.00,486.40"/>
        <lane id="sh6_1" index="1" speed="20.00" length="486.40" shape="2504.80,0.00 2504.80,486.40"/>
        <lane id="sh6_2" index="2" speed="20.00" length="486.40" shape="2501.60,0.00 2501.60,486.40"/>
    </edge>
    <edge id="w1" from="h2" to="h1" priority="-1">
        <lane id="w1_0" index="0" speed="20.00" length="486.40" shape="486.40,508.00 0.00,508.00"/>
        <lane id="w1_1" index="1" speed="20.00" length="486.40" shape="486.40,504.80 0.00,504.80"/>
        <lane id="w1_2" index="2" speed="20.00" length="486.40" shape="486.40,501.60 0.00,501.60"/>
    </edge>
    <edge id="w2" from="h3" to="h2" priority="-1">
        <lane id="w2_0" index="0" speed="20.00" length="472.80" shape="986.40,508.00 513.60,508.00"/>
        <lane id="w2_1" index="1" speed="20.00" length="472.80" shape="986.40,504.80 513.60,504.80"/>
        <lane id="w2_2" index="2" speed="20.00" length="472.80" shape="986.40,501.60 513.60,501.60"/>
    </edge>
    <edge id="w3" from="h4" to="h3" priority="-1">
        <lane id="w3_0" index="0" speed="20.00" length="472.80" shape="1486.40,508.00 1013.60,508.00"/>
        <lane id="w3_1" index="1" speed="20.00" length="472.80" shape="1486.40,504.80 1013.60,504.80"/>
        <lane id="w3_2" index="2" speed="20.00" length="472.80" shape="1486.40,501.60 1013.60,501.60"/>
    </edge>
    <edge id="w4" from="h5" to="h4" priority="-1">
        <lane id="w4_0" index="0" speed="20.00" length="472.80" shape="1986.40,508.00 1513.60,508.00"/>
        <lane id="w4_1" index="1" speed="20.00" length="472.80" shape="1986.40,504.80 1513.60,504.80"/>
        <lane id="w4_2" index="2" speed="20.00" length="472.80" shape="1986.40,501.60 1513.60,501.60"/>
    </edge>
    <edge id="w5" from="h6" to="h5" priority="-1">
        <lane id="w5_0" index="0" speed="20.00" length="472.80" shape="2486.40,508.00 2013.60,508.00"/>
        <lane id="w5_1" index="1" speed="20.00" length="472.80" shape="2486.40,504.80 2013.60,504.80"/>
        <lane id="w5_2" index="2" speed="20.00" length="472.80" shape="2486.40,501.60 2013.60,501.60"/>
    </edge>
    <edge id="w6" from="h7" to="h6" priority="-1">
        <lane id="w6_0" index="0" speed="20.00" length="486.40" shape="3000.00,508.00 2513.60,508.00"/>
        <lane id="w6_1" index="1" speed="20.00" length="486.40" shape="3000.00,504.80 2513.60,504.80"/>
        <lane id="w6_2" index="2" speed="20.00" length="486.40" shape="3000.00,501.60 2513.60,501.60"/>
    </edge>

    <tlLogic id="h2" type="static" programID="0" offset="0">
        <phase duration="5"  state="grGgrrgrGgrr" name="SNL"/>
        <phase duration="3"  state="grygrrgrygrr" name="y"/>
        <phase duration="2"  state="grrgrrgrrgrr" name="r"/>
        <phase duration="17" state="GGrgrrGGrgrr" name="SNT"/>
        <phase duration="3"  state="gyrgrrgyrgrr" name="y"/>
        <phase duration="2"  state="grrgrrgrrgrr" name="r"/>
        <phase duration="5"  state="grrgrGgrrgrG" name="EWL"/>
        <phase duration="3"  state="grrgrygrrgry" name="y"/>
        <phase duration="2"  state="grrgrrgrrgrr" name="r"/>
        <phase duration="17" state="grrGGrgrrGGr" name="EWT"/>
        <phase duration="3"  state="grrgyrgrrgyr" name="y"/>
        <phase duration="2"  state="grrgrrgrrgrr" name="r"/>
    </tlLogic>
    <tlLogic id="h3" type="static" programID="0" offset="0">
        <phase duration="5"  state="grGgrrgrGgrr" name="SNL"/>
        <phase duration="3"  state="grygrrgrygrr" name="y"/>
        <phase duration="2"  state="grrgrrgrrgrr" name="r"/>
        <phase duration="17" state="GGrgrrGGrgrr" name="SNT"/>
        <phase duration="3"  state="gyrgrrgyrgrr" name="y"/>
        <phase duration="2"  state="grrgrrgrrgrr" name="r"/>
        <phase duration="5"  state="grrgrGgrrgrG" name="EWL"/>
        <phase duration="3"  state="grrgrygrrgry" name="y"/>
        <phase duration="2"  state="grrgrrgrrgrr" name="r"/>
        <phase duration="17" state="grrGGrgrrGGr" name="EWT"/>
        <phase duration="3"  state="grrgyrgrrgyr" name="y"/>
        <phase duration="2"  state="grrgrrgrrgrr" name="r"/>
    </tlLogic>
    <tlLogic id="h4" type="static" programID="0" offset="0">
        <phase duration="5"  state="grGgrrgrGgrr" name="SNL"/>
        <phase duration="3"  state="grygrrgrygrr" name="y"/>
        <phase duration="2"  state="grrgrrgrrgrr" name="r"/>
        <phase duration="17" state="GGrgrrGGrgrr" name="SNT"/>
        <phase duration="3"  state="gyrgrrgyrgrr" name="y"/>
        <phase duration="2"  state="grrgrrgrrgrr" name="r"/>
        <phase duration="5"  state="grrgrGgrrgrG" name="EWL"/>
        <phase duration="3"  state="grrgrygrrgry" name="y"/>
        <phase duration="2"  state="grrgrrgrrgrr" name="r"/>
        <phase duration="17" state="grrGGrgrrGGr" name="EWT"/>
        <phase duration="3"  state="grrgyrgrrgyr" name="y"/>
        <phase duration="2"  state="grrgrrgrrgrr" name="r"/>
    </tlLogic>
    <tlLogic id="h5" type="static" programID="0" offset="0">
        <phase duration="5"  state="grGgrrgrGgrr" name="SNL"/>
        <phase duration="3"  state="grygrrgrygrr" name="y"/>
        <phase duration="2"  state="grrgrrgrrgrr" name="r"/>