<nodes>
    <node id="h1" x="0.0" y="0.0" />
    <node id="h2" x="500.0" y="0.0" />
    <node id="h3" x="1000.0" y="0.0" />
    <node id="h4" x="1500.0" y="0.0" />
    <node id="h5" x="2000.0" y="0.0" />
    <node id="h6" x="2500.0" y="0.0" />
    <node id="h7" x="3000.0" y="0.0" />

    <node id="n2" x="500.0" y="500.0" />
    <node id="s2" x="500.0" y="-500.0" />

    <node id="n3" x="1000.0" y="500.0" />
    <node id="s3" x="1000.0" y="-500.0" />

    <node id="n4" x="1500.0" y="500.0" />
    <node id="s4" x="1500.0" y="-500.0" />

    <node id="n5" x="2000.0" y="500.0" />
    <node id="s5" x="2000.0" y="-500.0" />

    <node id="n6" x="2500.0" y="500.0" />
    <node id="s6" x="2500.0" y="-500.0" />
</nodes>
