<configuration xmlns:xsi="http://www.w3.org/2001/XMLSchema-instance" xsi:noNamespaceSchemaLocation="http://sumo.dlr.de/xsd/duarouterConfiguration.xsd">

    <input>
        <net-file value="h.net.xml"/>
        <route-files value="sample-400.rou.xml"/>
        <additional-files value="h.add.xml, bus_far.add.xml"/>
    </input>
    <time-to-teleport value="-1"/>
</configuration>