<?xml version="1.0" encoding="UTF-8"?>

<!-- generated on 2023-11-23 17:35:41.541053 by routeSampler.py v1_18_0+0000-03ecfdea036
<configuration>
    <route-files value="h_corridor/h.rou.xml"/>
    <turn-ratio-files value="h_corridor/h.turn.xml"/>
    <edgedata-files value="h_corridor/h.enter.xml"/>
    <output-file value="h_corridor/sample-400.rou.xml"/>
    <attributes value="departLane=&quot;best&quot; departSpeed=&quot;max&quot;"/>
    <write-flows value="probability"/>
    <write-route-ids value="True"/>
</configuration>
-->

<routes xmlns:xsi="http://www.w3.org/2001/XMLSchema-instance" xsi:noNamespaceSchemaLocation="http://sumo.dlr.de/xsd/routes_file.xsd">
<!-- begin="0.0" end="3600.0" -->
    <route id="0" edges="e1 e2 e3 e4 e5 e6"/> <!-- 173 -->
    <route id="1" edges="e1 e2 e3 e4 e5 hn6"/> <!-- 14 -->
    <route id="2" edges="e1 e2 e3 e4 e5 hs6"/> <!-- 31 -->
    <route id="3" edges="e1 e2 e3 e4 hn5"/> <!-- 30 -->
    <route id="4" edges="e1 e2 e3 e4 hs5"/> <!-- 41 -->
    <route id="5" edges="e1 e2 e3 hn4"/> <!-- 39 -->
    <route id="6" edges="e1 e2 e3 hs4"/> <!-- 62 -->
    <route id="7" edges="e1 e2 hn3"/> <!-- 57 -->
    <route id="8" edges="e1 e2 hs3"/> <!-- 77 -->
    <route id="9" edges="e1 hn2"/> <!-- 71 -->
    <route id="10" edges="e1 hs2"/> <!-- 105 -->
    <route id="11" edges="nh2 e2 e3 e4 e5 e6"/> <!-- 24 -->
    <route id="12" edges="nh2 e2 e3 e4 e5 hn6"/> <!-- 2 -->
    <route id="13" edges="nh2 e2 e3 e4 e5 hs6"/> <!-- 3 -->
    <route id="14" edges="nh2 e2 e3 e4 hn5"/> <!-- 6 -->
    <route id="15" edges="nh2 e2 e3 e4 hs5"/> <!-- 7 -->
    <route id="16" edges="nh2 e2 e3 hn4"/> <!-- 9 -->
    <route id="17" edges="nh2 e2 e3 hs4"/> <!-- 3 -->
    <route id="18" edges="nh2 e2 hn3"/> <!-- 3 -->
    <route id="19" edges="nh2 e2 hs3"/> <!-- 14 -->
    <route id="20" edges="nh2 hs2"/> <!-- 523 -->
    <route id="21" edges="nh2 w1"/> <!-- 106 -->
    <route id="22" edges="nh3 e3 e4 e5 e6"/> <!-- 29 -->
    <route id="23" edges="nh3 e3 e4 e5 hn6"/> <!-- 4 -->
    <route id="24" edges="nh3 e3 e4 e5 hs6"/> <!-- 7 -->
    <route id="25" edges="nh3 e3 e4 hn5"/> <!-- 6 -->
    <route id="26" edges="nh3 e3 e4 hs5"/> <!-- 15 -->
    <route id="27" edges="nh3 e3 hn4"/> <!-- 5 -->
    <route id="28" edges="nh3 e3 hs4"/> <!-- 5 -->
    <route id="29" edges="nh3 hs3"/> <!-- 523 -->
    <route id="30" edges="nh3 w2 hn2"/> <!-- 14 -->
    <route id="31" edges="nh3 w2 hs2"/> <!-- 7 -->
    <route id="32" edges="nh3 w2 w1"/> <!-- 85 -->
    <route id="33" edges="nh4 e4 e5 e6"/> <!-- 38 -->
    <route id="34" edges="nh4 e4 e5 hn6"/> <!-- 3 -->
    <route id="35" edges="nh4 e4 e5 hs6"/> <!-- 10 -->
    <route id="36" edges="nh4 e4 hn5"/> <!-- 7 -->
    <route id="37" edges="nh4 e4 hs5"/> <!-- 13 -->
    <route id="38" edges="nh4 hs4"/> <!-- 523 -->
    <route id="39" edges="nh4 w3 hn3"/> <!-- 12 -->
    <route id="40" edges="nh4 w3 hs3"/> <!-- 11 -->
    <route id="41" edges="nh4 w3 w2 hn2"/> <!-- 16 -->
    <route id="42" edges="nh4 w3 w2 hs2"/> <!-- 11 -->
    <route id="43" edges="nh4 w3 w2 w1"/> <!-- 56 -->
    <route id="44" edges="nh5 e5 e6"/> <!-- 45 -->
    <route id="45" edges="nh5 e5 hn6"/> <!-- 11 -->
    <route id="46" edges="nh5 e5 hs6"/> <!-- 15 -->
    <route id="47" edges="nh5 hs5"/> <!-- 523 -->
    <route id="48" edges="nh5 w4 hn4"/> <!-- 14 -->
    <route id="49" edges="nh5 w4 hs4"/> <!-- 9 -->
    <route id="50" edges="nh5 w4 w3 hn3"/> <!-- 9 -->
    <route id="51" edges="nh5 w4 w3 hs3"/> <!-- 10 -->
    <route id="52" edges="nh5 w4 w3 w2 hn2"/> <!-- 6 -->
    <route id="53" edges="nh5 w4 w3 w2 hs2"/> <!-- 4 -->
    <route id="54" edges="nh5 w4 w3 w2 w1"/> <!-- 54 -->
    <route id="55" edges="nh6 e6"/> <!-- 71 -->
    <route id="56" edges="nh6 hs6"/> <!-- 523 -->
    <route id="57" edges="nh6 w5 hn5"/> <!-- 20 -->
    <route id="58" edges="nh6 w5 hs5"/> <!-- 13 -->
    <route id="59" edges="nh6 w5 w4 hn4"/> <!-- 14 -->
    <route id="60" edges="nh6 w5 w4 hs4"/> <!-- 7 -->
    <route id="61" edges="nh6 w5 w4 w3 hn3"/> <!-- 12 -->
    <route id="62" edges="nh6 w5 w4 w3 hs3"/> <!-- 3 -->
    <route id="63" edges="nh6 w5 w4 w3 w2 hn2"/> <!-- 6 -->
    <route id="64" edges="nh6 w5 w4 w3 w2 hs2"/> <!-- 4 -->
    <route id="65" edges="nh6 w5 w4 w3 w2 w1"/> <!-- 27 -->
    <route id="66" edges="sh2 e2 e3 e4 e5 e6"/> <!-- 35 -->
    <route id="67" edges="sh2 e2 e3 e4 e5 hn6"/> <!-- 8 -->
    <route id="68" edges="sh2 e2 e3 e4 e5 hs6"/> <!-- 8 -->
    <route id="69" edges="sh2 e2 e3 e4 hn5"/> <!-- 5 -->
    <route id="70" edges="sh2 e2 e3 e4 hs5"/> <!-- 6 -->
    <route id="71" edges="sh2 e2 e3 hn4"/> <!-- 8 -->
    <route id="72" edges="sh2 e2 e3 hs4"/> <!-- 11 -->
    <route id="73" edges="sh2 e2 hn3"/> <!-- 10 -->
    <route id="74" edges="sh2 e2 hs3"/> <!-- 15 -->
    <route id="75" edges="sh2 hn2"/> <!-- 523 -->
    <route id="76" edges="sh2 w1"/> <!-- 71 -->
    <route id="77" edges="sh3 e3 e4 e5 e6"/> <!-- 32 -->
    <route id="78" edges="sh3 e3 e4 e5 hn6"/> <!-- 7 -->
    <route id="79" edges="sh3 e3 e4 e5 hs6"/> <!-- 8 -->
    <route id="80" edges="sh3 e3 e4 hn5"/> <!-- 10 -->
    <route id="81" edges="sh3 e3 e4 hs5"/> <!-- 14 -->
    <route id="82" edges="sh3 e3 hn4"/> <!-- 10 -->
    <route id="83" edges="sh3 e3 hs4"/> <!-- 25 -->
    <route id="84" edges="sh3 hn3"/> <!-- 523 -->
    <route id="85" edges="sh3 w2 hn2"/> <!-- 10 -->
    <route id="86" edges="sh3 w2 hs2"/> <!-- 11 -->
    <route id="87" edges="sh3 w2 w1"/> <!-- 50 -->
    <route id="88" edges="sh4 e4 e5 e6"/> <!-- 70 -->
    <route id="89" edges="sh4 e4 e5 hn6"/> <!-- 6 -->
    <route id="90" edges="sh4 e4 e5 hs6"/> <!-- 13 -->
    <route id="91" edges="sh4 e4 hn5"/> <!-- 7 -->
    <route id="92" edges="sh4 e4 hs5"/> <!-- 10 -->
    <route id="93" edges="sh4 hn4"/> <!-- 523 -->
    <route id="94" edges="sh4 w3 hn3"/> <!-- 13 -->
    <route id="95" edges="sh4 w3 hs3"/> <!-- 7 -->
    <route id="96" edges="sh4 w3 w2 hn2"/> <!-- 7 -->
    <route id="97" edges="sh4 w3 w2 hs2"/> <!-- 7 -->
    <route id="98" edges="sh4 w3 w2 w1"/> <!-- 37 -->
    <route id="99" edges="sh5 e5 e6"/> <!-- 79 -->
    <route id="100" edges="sh5 e5 hn6"/> <!-- 16 -->
    <route id="101" edges="sh5 e5 hs6"/> <!-- 11 -->
    <route id="102" edges="sh5 hn5"/> <!-- 523 -->
    <route id="103" edges="sh5 w4 hn4"/> <!-- 12 -->
    <route id="104" edges="sh5 w4 hs4"/> <!-- 11 -->
    <route id="105" edges="sh5 w4 w3 hn3"/> <!-- 5 -->
    <route id="106" edges="sh5 w4 w3 hs3"/> <!-- 5 -->
    <route id="107" edges="sh5 w4 w3 w2 hn2"/> <!-- 5 -->
    <route id="108" edges="sh5 w4 w3 w2 hs2"/> <!-- 4 -->
    <route id="109" edges="sh5 w4 w3 w2 w1"/> <!-- 29 -->
    <route id="110" edges="sh6 e6"/> <!-- 106 -->
    <route id="111" edges="sh6 hn6"/> <!-- 523 -->
    <route id="112" edges="sh6 w5 hn5"/> <!-- 9 -->
    <route id="113" edges="sh6 w5 hs5"/> <!-- 9 -->
    <route id="114" edges="sh6 w5 w4 hn4"/> <!-- 7 -->
    <route id="115" edges="sh6 w5 w4 hs4"/> <!-- 9 -->
    <route id="116" edges="sh6 w5 w4 w3 hn3"/> <!-- 3 -->
    <route id="117" edges="sh6 w5 w4 w3 hs3"/> <!-- 2 -->
    <route id="118" edges="sh6 w5 w4 w3 w2 hn2"/> <!-- 9 -->
    <route id="119" edges="sh6 w5 w4 w3 w2 hs2"/> <!-- 5 -->
    <route id="120" edges="sh6 w5 w4 w3 w2 w1"/> <!-- 18 -->
    <route id="121" edges="w6 hn6"/> <!-- 103 -->
    <route id="122" edges="w6 hs6"/> <!-- 71 -->
    <route id="123" edges="w6 w5 hn5"/> <!-- 77 -->
    <route id="124" edges="w6 w5 hs5"/> <!-- 49 -->
    <route id="125" edges="w6 w5 w4 hn4"/> <!-- 59 -->
    <route id="126" edges="w6 w5 w4 hs4"/> <!-- 36 -->
    <route id="127" edges="w6 w5 w4 w3 hn3"/> <!-- 52 -->
    <route id="128" edges="w6 w5 w4 w3 hs3"/> <!-- 33 -->
    <route id="129" edges="w6 w5 w4 w3 w2 hn2"/> <!-- 33 -->
    <route id="130" edges="w6 w5 w4 w3 w2 hs2"/> <!-- 19 -->
    <route id="131" edges="w6 w5 w4 w3 w2 w1"/> <!-- 168 -->

    <flow id="127" begin="0.00" end="3534.43" probability="0.0147" route="127" departLane="best" departSpeed="max"/>
    <flow id="102" begin="0.43" end="3598.71" probability="0.1453" route="102" departLane="best" departSpeed="max"/>
    <flow id="20" begin="1.29" end="3597.43" probability="0.1454" route="20" departLane="best" departSpeed="max"/>
    <flow id="56" begin="1.71" end="3597.86" probability="0.1454" route="56" departLane="best" departSpeed="max"/>
    <flow id="93" begin="2.14" end="3591.86" probability="0.1457" route="93" departLane="best" departSpeed="max"/>
    <flow id="110" begin="3.86" end="3563.14" probability="0.0298" route="110" departLane="best" departSpeed="max"/>
    <flow id="38" begin="4.29" end="3595.71" probability="0.1456" route="38" departLane="best" departSpeed="max"/>
    <flow id="43" begin="4.71" end="3561.86" probability="0.0157" route="43" departLane="best" departSpeed="max"/>
    <flow id="111" begin="5.57" end="3595.29" probability="0.1457" route="111" departLane="best" departSpeed="max"/>
    <flow id="29" begin="6.00" end="3594.43" probability="0.1457" route="29" departLane="best" departSpeed="max"/>
    <flow id="0" begin="6.43" end="3583.29" probability="0.0484" route="0" departLane="best" departSpeed="max"/>
    <flow id="47" begin="7.29" end="3594.00" probability="0.1458" route="47" departLane="best" departSpeed="max"/>
    <flow id="94" begin="7.71" end="3208.29" probability="0.0041" route="94" departLane="best" departSpeed="max"/>
    <flow id="75" begin="8.14" end="3598.29" probability="0.1457" route="75" departLane="best" departSpeed="max"/>
    <flow id="84" begin="9.86" end="3599.57" probability="0.1457" route="84" departLane="best" departSpeed="max"/>
    <flow id="8" begin="12.43" end="3586.71" probability="0.0215" route="8" departLane="best" departSpeed="max"/>
    <flow id="7" begin="12.86" end="3596.57" probability="0.0159" route="7" departLane="best" departSpeed="max"/>
    <flow id="122" begin="13.71" end="3564.00" probability="0.0200" route="122" departLane="best" departSpeed="max"/>
    <flow id="49" begin="14.14" end="3503.57" probability="0.0026" route="49" departLane="best" departSpeed="max"/>
    <flow id="32" begin="14.57" end="3560.57" probability="0.0240" route="32" departLane="best" departSpeed="max"/>
    <flow id="10" begin="15.00" end="3533.14" probability="0.0298" route="10" departLane="best" departSpeed="max"/>
    <flow id="73" begin="17.57" end="3492.86" probability="0.0029" route="73" departLane="best" departSpeed="max"/>
    <flow id="121" begin="20.57" end="3566.57" probability="0.0290" route="121" departLane="best" departSpeed="max"/>
    <flow id="9" begin="23.57" end="3599.14" probability="0.0199" route="9" departLane="best" departSpeed="max"/>
    <flow id="120" begin="24.00" end="3477.00" probability="0.0052" route="120" departLane="best" departSpeed="max"/>
    <flow id="123" begin="29.57" end="3585.43" probability="0.0217" route="123" departLane="best" departSpeed="max"/>
    <flow id="125" begin="31.29" end="3546.43" probability="0.0168" route="125" departLane="best" departSpeed="max"/>
    <flow id="26" begin="36.43" end="3493.71" probability="0.0043" route="26" departLane="best" departSpeed="max"/>
    <flow id="21" begin="36.86" end="3500.57" probability="0.0306" route="21" departLane="best" departSpeed="max"/>
    <flow id="87" begin="37.29" end="3546.00" probability="0.0143" route="87" departLane="best" departSpeed="max"/>
    <flow id="88" begin="38.14" end="3517.71" probability="0.0201" route="88" departLane="best" departSpeed="max"/>
    <flow id="89" begin="40.71" end="3053.57" probability="0.0020" route="89" departLane="best" departSpeed="max"/>
    <flow id="55" begin="43.71" end="3561.43" probability="0.0202" route="55" departLane="best" departSpeed="max"/>
    <flow id="35" begin="47.14" end="3417.00" probability="0.0030" route="35" departLane="best" departSpeed="max"/>
    <flow id="128" begin="48.86" end="3537.00" probability="0.0095" route="128" departLane="best" departSpeed="max"/>
    <flow id="131" begin="49.29" end="3592.71" probability="0.0474" route="131" departLane="best" departSpeed="max"/>
    <flow id="59" begin="53.14" end="3421.29" probability="0.0042" route="59" departLane="best" departSpeed="max"/>
    <flow id="86" begin="53.57" end="3113.57" probability="0.0036" route="86" departLane="best" departSpeed="max"/>
    <flow id="2" begin="57.43" end="3371.14" probability="0.0094" route="2" departLane="best" departSpeed="max"/>
    <flow id="113" begin="59.57" end="3578.57" probability="0.0026" route="113" departLane="best" departSpeed="max"/>
    <flow id="54" begin="60.43" end="3459.00" probability="0.0159" route="54" departLane="best" departSpeed="max"/>
    <flow id="61" begin="62.14" end="3564.43" probability="0.0034" route="61" departLane="best" departSpeed="max"/>
    <flow id="105" begin="64.29" end="1942.71" probability="0.0027" route="105" departLane="best" departSpeed="max"/>
    <flow id="98" begin="65.57" end="3587.57" probability="0.0105" route="98" departLane="best" departSpeed="max"/>
    <flow id="41" begin="68.14" end="3419.14" probability="0.0048" route="41" departLane="best" departSpeed="max"/>
    <flow id="74" begin="72.86" end="3231.43" probability="0.0047" route="74" departLane="best" departSpeed="max"/>
    <flow id="42" begin="73.71" end="3399.86" probability="0.0033" route="42" departLane="best" departSpeed="max"/>
    <flow id="118" begin="77.14" end="2822.57" probability="0.0033" route="118" departLane="best" departSpeed="max"/>
    <flow id="76" begin="78.43" end="3540.43" probability="0.0205" route="76" departLane="best" departSpeed="max"/>
    <flow id="5" begin="82.71" end="3534.00" probability="0.0113" route="5" departLane="best" departSpeed="max"/>
    <flow id="44" begin="84.43" end="3548.14" probability="0.0130" route="44" departLane="best" departSpeed="max"/>
    <flow id="126" begin="87.43" end="3582.86" probability="0.0103" route="126" departLane="best" departSpeed="max"/>
    <flow id="67" begin="88.71" end="2751.86" probability="0.0030" route="67" departLane="best" departSpeed="max"/>
    <flow id="99" begin="92.14" end="3519.00" probability="0.0231" route="99" departLane="best" departSpeed="max"/>
    <flow id="103" begin="95.57" end="2436.86" probability="0.0051" route="103" departLane="best" departSpeed="max"/>
    <flow id="4" begin="101.14" end="3590.57" probability="0.0117" route="4" departLane="best" departSpeed="max"/>
    <flow id="23" begin="104.57" end="2924.14" probability="0.0014" route="23" departLane="best" departSpeed="max"/>
    <flow id="34" begin="105.00" end="2091.43" probability="0.0015" route="34" departLane="best" departSpeed="max"/>
    <flow id="51" begin="106.29" end="3514.71" probability="0.0029" route="51" departLane="best" departSpeed="max"/>
    <flow id="96" begin="106.71" end="2455.71" probability="0.0030" route="96" departLane="best" departSpeed="max"/>
    <flow id="63" begin="108.86" end="3554.57" probability="0.0017" route="63" departLane="best" departSpeed="max"/>
    <flow id="124" begin="117.86" end="3161.57" probability="0.0161" route="124" departLane="best" departSpeed="max"/>
    <flow id="22" begin="121.29" end="3542.14" probability="0.0085" route="22" departLane="best" departSpeed="max"/>
    <flow id="6" begin="121.71" end="3570.86" probability="0.0180" route="6" departLane="best" departSpeed="max"/>
    <flow id="77" begin="126.86" end="3520.71" probability="0.0094" route="77" departLane="best" departSpeed="max"/>
    <flow id="45" begin="129.00" end="3501.86" probability="0.0033" route="45" departLane="best" departSpeed="max"/>
    <flow id="40" begin="129.86" end="3594.86" probability="0.0032" route="40" departLane="best" departSpeed="max"/>
    <flow id="70" begin="134.57" end="3441.00" probability="0.0018" route="70" departLane="best" departSpeed="max"/>
    <flow id="66" begin="136.71" end="3562.29" probability="0.0102" route="66" departLane="best" departSpeed="max"/>
    <flow id="13" begin="141.86" end="2357.14" probability="0.0014" route="13" departLane="best" departSpeed="max"/>
    <flow id="36" begin="143.57" end="3411.00" probability="0.0021" route="36" departLane="best" departSpeed="max"/>
    <flow id="129" begin="154.29" end="3555.43" probability="0.0097" route="129" departLane="best" departSpeed="max"/>
    <flow id="58" begin="155.14" end="2834.14" probability="0.0049" route="58" departLane="best" departSpeed="max"/>
    <flow id="109" begin="156.43" end="3385.71" probability="0.0090" route="109" departLane="best" departSpeed="max"/>
    <flow id="37" begin="161.57" end="3488.14" probability="0.0039" route="37" departLane="best" departSpeed="max"/>
    <flow id="92" begin="167.14" end="3576.86" probability="0.0029" route="92" departLane="best" departSpeed="max"/>
    <flow id="101" begin="173.57" end="3272.57" probability="0.0035" route="101" departLane="best" departSpeed="max"/>
    <flow id="81" begin="179.57" end="3545.14" probability="0.0042" route="81" departLane="best" departSpeed="max"/>
    <flow id="69" begin="187.71" end="3017.57" probability="0.0018" route="69" departLane="best" departSpeed="max"/>
    <flow id="16" begin="192.86" end="3308.57" probability="0.0029" route="16" departLane="best" departSpeed="max"/>
    <flow id="14" begin="196.29" end="3427.29" probability="0.0019" route="14" departLane="best" departSpeed="max"/>
    <flow id="72" begin="200.57" end="3377.14" probability="0.0035" route="72" departLane="best" departSpeed="max"/>
    <flow id="1" begin="205.29" end="3463.29" probability="0.0043" route="1" departLane="best" departSpeed="max"/>
    <flow id="18" begin="210.00" end="2428.29" probability="0.0014" route="18" departLane="best" departSpeed="max"/>
    <flow id="65" begin="219.00" end="3470.14" probability="0.0083" route="65" departLane="best" departSpeed="max"/>
    <flow id="33" begin="225.86" end="3570.00" probability="0.0114" route="33" departLane="best" departSpeed="max"/>
    <flow id="104" begin="243.43" end="3267.43" probability="0.0036" route="104" departLane="best" departSpeed="max"/>
    <flow id="130" begin="246.86" end="3422.57" probability="0.0060" route="130" departLane="best" departSpeed="max"/>
    <flow id="83" begin="253.71" end="3398.14" probability="0.0080" route="83" departLane="best" departSpeed="max"/>
    <flow id="106" begin="254.57" end="3159.86" probability="0.0017" route="106" departLane="best" departSpeed="max"/>
    <flow id="82" begin="262.71" end="3269.57" probability="0.0033" route="82" departLane="best" departSpeed="max"/>
    <flow id="39" begin="270.00" end="2874.86" probability="0.0046" route="39" departLane="best" departSpeed="max"/>
    <flow id="19" begin="276.00" end="3567.00" probability="0.0043" route="19" departLane="best" departSpeed="max"/>
    <flow id="112" begin="279.00" end="2597.14" probability="0.0039" route="112" departLane="best" departSpeed="max"/>
    <flow id="46" begin="283.71" end="3581.57" probability="0.0045" route="46" departLane="best" departSpeed="max"/>
    <flow id="71" begin="284.57" end="3282.00" probability="0.0027" route="71" departLane="best" departSpeed="max"/>
    <flow id="11" begin="305.57" end="2937.86" probability="0.0091" route="11" departLane="best" departSpeed="max"/>
    <flow id="30" begin="309.00" end="3259.71" probability="0.0047" route="30" departLane="best" departSpeed="max"/>
    <flow id="85" begin="340.29" end="2961.00" probability="0.0038" route="85" departLane="best" departSpeed="max"/>
    <flow id="50" begin="341.57" end="3015.86" probability="0.0034" route="50" departLane="best" departSpeed="max"/>
    <flow id="52" begin="352.29" end="2314.71" probability="0.0031" route="52" departLane="best" departSpeed="max"/>
    <flow id="90" begin="379.29" end="3550.29" probability="0.0041" route="90" departLane="best" departSpeed="max"/>
    <flow id="28" begin="389.14" end="3243.00" probability="0.0018" route="28" departLane="best" departSpeed="max"/>
    <flow id="80" begin="425.57" end="3571.29" probability="0.0032" route="80" departLane="best" departSpeed="max"/>
    <flow id="17" begin="437.14" end="3020.57" probability="0.0012" route="17" departLane="best" departSpeed="max"/>
    <flow id="48" begin="438.43" end="3313.29" probability="0.0049" route="48" departLane="best" departSpeed="max"/>
    <flow id="100" begin="439.71" end="3571.71" probability="0.0051" route="100" departLane="best" departSpeed="max"/>
    <flow id="115" begin="442.71" end="2523.43" probability="0.0043" route="115" departLane="best" departSpeed="max"/>
    <flow id="108" begin="449.57" end="3064.71" probability="0.0015" route="108" departLane="best" departSpeed="max"/>
    <flow id="27" begin="450.86" end="3357.86" probability="0.0017" route="27" departLane="best" departSpeed="max"/>
    <flow id="91" begin="484.71" end="3433.71" probability="0.0024" route="91" departLane="best" departSpeed="max"/>
    <flow id="79" begin="496.71" end="3476.57" probability="0.0027" route="79" departLane="best" departSpeed="max"/>
    <flow id="3" begin="516.00" end="3582.00" probability="0.0098" route="3" departLane="best" departSpeed="max"/>
    <flow id="25" begin="523.71" end="3398.57" probability="0.0021" route="25" departLane="best" departSpeed="max"/>
    <flow id="24" begin="526.71" end="2460.00" probability="0.0036" route="24" departLane="best" departSpeed="max"/>
    <flow id="97" begin="538.71" end="2592.43" probability="0.0034" route="97" departLane="best" departSpeed="max"/>
    <flow id="62" begin="584.14" end="2030.57" probability="0.0021" route="62" departLane="best" departSpeed="max"/>
    <flow id="68" begin="593.14" end="2889.86" probability="0.0035" route="68" departLane="best" departSpeed="max"/>
    <flow id="57" begin="609.43" end="3208.71" probability="0.0077" route="57" departLane="best" departSpeed="max"/>
    <flow id="53" begin="614.14" end="2370.00" probability="0.0023" route="53" departLane="best" departSpeed="max"/>
    <flow id="64" begin="684.43" end="3560.14" probability="0.0014" route="64" departLane="best" departSpeed="max"/>
    <flow id="60" begin="744.86" end="3204.00" probability="0.0028" route="60" departLane="best" departSpeed="max"/>
    <flow id="15" begin="826.71" end="3314.14" probability="0.0028" route="15" departLane="best" departSpeed="max"/>
    <flow id="31" begin="839.57" end="3526.71" probability="0.0026" route="31" departLane="best" departSpeed="max"/>
    <flow id="119" begin="890.14" end="2464.71" probability="0.0032" route="119" departLane="best" departSpeed="max"/>
    <flow id="116" begin="924.43" end="2926.71" probability="0.0015" route="116" departLane="best" departSpeed="max"/>
    <flow id="107" begin="940.29" end="3214.71" probability="0.0022" route="107" departLane="best" departSpeed="max"/>
    <flow id="95" begin="1114.29" end="3558.00" probability="0.0029" route="95" departLane="best" departSpeed="max"/>
    <flow id="78" begin="1380.43" end="3491.57" probability="0.0033" route="78" departLane="best" departSpeed="max"/>
    <flow id="114" begin="1494.86" end="2828.14" probability="0.0053" route="114" departLane="best" departSpeed="max"/>
    <flow id="117" begin="1716.86" end="2233.71" probability="0.0039" route="117" departLane="best" departSpeed="max"/>
    <flow id="12" begin="3097.71" end="3281.57" probability="0.0109" route="12" departLane="best" departSpeed="max"/>
</routes>
