<?xml version="1.0" encoding="UTF-8"?>

<!-- generated on 2024-01-02 16:15:40.627055 by routeSampler.py UNKNOWN
<configuration>
    <route-files value="scenarios/h_corridor/h.rou.xml"/>
    <turn-ratio-files value="scenarios/h_corridor/h.turn.xml"/>
    <edgedata-files value="scenarios/h_corridor/h.enter.xml"/>
    <output-file value="scenarios/h_corridor/sample-850.rou.xml"/>
    <attributes value="departLane=&quot;best&quot; departSpeed=&quot;max&quot;"/>
    <write-flows value="probability"/>
    <write-route-ids value="True"/>
</configuration>
-->

<routes xmlns:xsi="http://www.w3.org/2001/XMLSchema-instance" xsi:noNamespaceSchemaLocation="http://sumo.dlr.de/xsd/routes_file.xsd">
<!-- begin="0.0" end="4400.0" -->
    <route id="0" edges="e1 e2 e3 e4 e5 e6"/> <!-- 209 -->
    <route id="1" edges="e1 e2 e3 e4 e5 hn6"/> <!-- 21 -->
    <route id="2" edges="e1 e2 e3 e4 e5 hs6"/> <!-- 37 -->
    <route id="3" edges="e1 e2 e3 e4 hn5"/> <!-- 33 -->
    <route id="4" edges="e1 e2 e3 e4 hs5"/> <!-- 47 -->
    <route id="5" edges="e1 e2 e3 hn4"/> <!-- 48 -->
    <route id="6" edges="e1 e2 e3 hs4"/> <!-- 76 -->
    <route id="7" edges="e1 e2 hn3"/> <!-- 69 -->
    <route id="8" edges="e1 e2 hs3"/> <!-- 96 -->
    <route id="9" edges="e1 hn2"/> <!-- 86 -->
    <route id="10" edges="e1 hs2"/> <!-- 128 -->
    <route id="11" edges="nh2 e2 e3 e4 e5 e6"/> <!-- 28 -->
    <route id="12" edges="nh2 e2 e3 e4 e5 hn6"/> <!-- 5 -->
    <route id="13" edges="nh2 e2 e3 e4 e5 hs6"/> <!-- 5 -->
    <route id="14" edges="nh2 e2 e3 e4 hn5"/> <!-- 4 -->
    <route id="15" edges="nh2 e2 e3 e4 hs5"/> <!-- 8 -->
    <route id="16" edges="nh2 e2 e3 hn4"/> <!-- 7 -->
    <route id="17" edges="nh2 e2 e3 hs4"/> <!-- 9 -->
    <route id="18" edges="nh2 e2 hn3"/> <!-- 8 -->
    <route id="19" edges="nh2 e2 hs3"/> <!-- 12 -->
    <route id="20" edges="nh2 hs2"/> <!-- 635 -->
    <route id="21" edges="nh2 w1"/> <!-- 129 -->
    <route id="22" edges="nh3 e3 e4 e5 e6"/> <!-- 35 -->
    <route id="23" edges="nh3 e3 e4 e5 hn6"/> <!-- 4 -->
    <route id="24" edges="nh3 e3 e4 e5 hs6"/> <!-- 10 -->
    <route id="25" edges="nh3 e3 e4 hn5"/> <!-- 8 -->
    <route id="26" edges="nh3 e3 e4 hs5"/> <!-- 15 -->
    <route id="27" edges="nh3 e3 hn4"/> <!-- 5 -->
    <route id="28" edges="nh3 e3 hs4"/> <!-- 9 -->
    <route id="29" edges="nh3 hs3"/> <!-- 635 -->
    <route id="30" edges="nh3 w2 hn2"/> <!-- 14 -->
    <route id="31" edges="nh3 w2 hs2"/> <!-- 17 -->
    <route id="32" edges="nh3 w2 w1"/> <!-- 98 -->
    <route id="33" edges="nh4 e4 e5 e6"/> <!-- 47 -->
    <route id="34" edges="nh4 e4 e5 hn6"/> <!-- 8 -->
    <route id="35" edges="nh4 e4 e5 hs6"/> <!-- 7 -->
    <route id="36" edges="nh4 e4 hn5"/> <!-- 11 -->
    <route id="37" edges="nh4 e4 hs5"/> <!-- 13 -->
    <route id="38" edges="nh4 hs4"/> <!-- 635 -->
    <route id="39" edges="nh4 w3 hn3"/> <!-- 18 -->
    <route id="40" edges="nh4 w3 hs3"/> <!-- 14 -->
    <route id="41" edges="nh4 w3 w2 hn2"/> <!-- 20 -->
    <route id="42" edges="nh4 w3 w2 hs2"/> <!-- 8 -->
    <route id="43" edges="nh4 w3 w2 w1"/> <!-- 69 -->
    <route id="44" edges="nh5 e5 e6"/> <!-- 63 -->
    <route id="45" edges="nh5 e5 hn6"/> <!-- 10 -->
    <route id="46" edges="nh5 e5 hs6"/> <!-- 13 -->
    <route id="47" edges="nh5 hs5"/> <!-- 635 -->
    <route id="48" edges="nh5 w4 hn4"/> <!-- 21 -->
    <route id="49" edges="nh5 w4 hs4"/> <!-- 12 -->
    <route id="50" edges="nh5 w4 w3 hn3"/> <!-- 12 -->
    <route id="51" edges="nh5 w4 w3 hs3"/> <!-- 7 -->
    <route id="52" edges="nh5 w4 w3 w2 hn2"/> <!-- 14 -->
    <route id="53" edges="nh5 w4 w3 w2 hs2"/> <!-- 4 -->
    <route id="54" edges="nh5 w4 w3 w2 w1"/> <!-- 59 -->
    <route id="55" edges="nh6 e6"/> <!-- 86 -->
    <route id="56" edges="nh6 hs6"/> <!-- 635 -->
    <route id="57" edges="nh6 w5 hn5"/> <!-- 24 -->
    <route id="58" edges="nh6 w5 hs5"/> <!-- 14 -->
    <route id="59" edges="nh6 w5 w4 hn4"/> <!-- 15 -->
    <route id="60" edges="nh6 w5 w4 hs4"/> <!-- 9 -->
    <route id="61" edges="nh6 w5 w4 w3 hn3"/> <!-- 13 -->
    <route id="62" edges="nh6 w5 w4 w3 hs3"/> <!-- 8 -->
    <route id="63" edges="nh6 w5 w4 w3 w2 hn2"/> <!-- 3 -->
    <route id="64" edges="nh6 w5 w4 w3 w2 hs2"/> <!-- 6 -->
    <route id="65" edges="nh6 w5 w4 w3 w2 w1"/> <!-- 37 -->
    <route id="66" edges="sh2 e2 e3 e4 e5 e6"/> <!-- 43 -->
    <route id="67" edges="sh2 e2 e3 e4 e5 hn6"/> <!-- 9 -->
    <route id="68" edges="sh2 e2 e3 e4 e5 hs6"/> <!-- 10 -->
    <route id="69" edges="sh2 e2 e3 e4 hn5"/> <!-- 6 -->
    <route id="70" edges="sh2 e2 e3 e4 hs5"/> <!-- 10 -->
    <route id="71" edges="sh2 e2 e3 hn4"/> <!-- 8 -->
    <route id="72" edges="sh2 e2 e3 hs4"/> <!-- 14 -->
    <route id="73" edges="sh2 e2 hn3"/> <!-- 9 -->
    <route id="74" edges="sh2 e2 hs3"/> <!-- 20 -->
    <route id="75" edges="sh2 hn2"/> <!-- 635 -->
    <route id="76" edges="sh2 w1"/> <!-- 86 -->
    <route id="77" edges="sh3 e3 e4 e5 e6"/> <!-- 44 -->
    <route id="78" edges="sh3 e3 e4 e5 hn6"/> <!-- 11 -->
    <route id="79" edges="sh3 e3 e4 e5 hs6"/> <!-- 13 -->
    <route id="80" edges="sh3 e3 e4 hn5"/> <!-- 8 -->
    <route id="81" edges="sh3 e3 e4 hs5"/> <!-- 16 -->
    <route id="82" edges="sh3 e3 hn4"/> <!-- 18 -->
    <route id="83" edges="sh3 e3 hs4"/> <!-- 19 -->
    <route id="84" edges="sh3 hn3"/> <!-- 635 -->
    <route id="85" edges="sh3 w2 hn2"/> <!-- 9 -->
    <route id="86" edges="sh3 w2 hs2"/> <!-- 13 -->
    <route id="87" edges="sh3 w2 w1"/> <!-- 64 -->
    <route id="88" edges="sh4 e4 e5 e6"/> <!-- 69 -->
    <route id="89" edges="sh4 e4 e5 hn6"/> <!-- 7 -->
    <route id="90" edges="sh4 e4 e5 hs6"/> <!-- 16 -->
    <route id="91" edges="sh4 e4 hn5"/> <!-- 17 -->
    <route id="92" edges="sh4 e4 hs5"/> <!-- 20 -->
    <route id="93" edges="sh4 hn4"/> <!-- 635 -->
    <route id="94" edges="sh4 w3 hn3"/> <!-- 9 -->
    <route id="95" edges="sh4 w3 hs3"/> <!-- 8 -->
    <route id="96" edges="sh4 w3 w2 hn2"/> <!-- 8 -->
    <route id="97" edges="sh4 w3 w2 hs2"/> <!-- 6 -->
    <route id="98" edges="sh4 w3 w2 w1"/> <!-- 55 -->
    <route id="99" edges="sh5 e5 e6"/> <!-- 99 -->
    <route id="100" edges="sh5 e5 hn6"/> <!-- 12 -->
    <route id="101" edges="sh5 e5 hs6"/> <!-- 18 -->
    <route id="102" edges="sh5 hn5"/> <!-- 635 -->
    <route id="103" edges="sh5 w4 hn4"/> <!-- 11 -->
    <route id="104" edges="sh5 w4 hs4"/> <!-- 11 -->
    <route id="105" edges="sh5 w4 w3 hn3"/> <!-- 9 -->
    <route id="106" edges="sh5 w4 w3 hs3"/> <!-- 8 -->
    <route id="107" edges="sh5 w4 w3 w2 hn2"/> <!-- 9 -->
    <route id="108" edges="sh5 w4 w3 w2 hs2"/> <!-- 3 -->
    <route id="109" edges="sh5 w4 w3 w2 w1"/> <!-- 35 -->
    <route id="110" edges="sh6 e6"/> <!-- 129 -->
    <route id="111" edges="sh6 hn6"/> <!-- 635 -->
    <route id="112" edges="sh6 w5 hn5"/> <!-- 11 -->
    <route id="113" edges="sh6 w5 hs5"/> <!-- 11 -->
    <route id="114" edges="sh6 w5 w4 hn4"/> <!-- 10 -->
    <route id="115" edges="sh6 w5 w4 hs4"/> <!-- 9 -->
    <route id="116" edges="sh6 w5 w4 w3 hn3"/> <!-- 5 -->
    <route id="117" edges="sh6 w5 w4 w3 hs3"/> <!-- 4 -->
    <route id="118" edges="sh6 w5 w4 w3 w2 hn2"/> <!-- 8 -->
    <route id="119" edges="sh6 w5 w4 w3 w2 hs2"/> <!-- 5 -->
    <route id="120" edges="sh6 w5 w4 w3 w2 w1"/> <!-- 23 -->
    <route id="121" edges="w6 hn6"/> <!-- 126 -->
    <route id="122" edges="w6 hs6"/> <!-- 86 -->
    <route id="123" edges="w6 w5 hn5"/> <!-- 93 -->
    <route id="124" edges="w6 w5 hs5"/> <!-- 60 -->
    <route id="125" edges="w6 w5 w4 hn4"/> <!-- 72 -->
    <route id="126" edges="w6 w5 w4 hs4"/> <!-- 45 -->
    <route id="127" edges="w6 w5 w4 w3 hn3"/> <!-- 63 -->
    <route id="128" edges="w6 w5 w4 w3 hs3"/> <!-- 38 -->
    <route id="129" edges="w6 w5 w4 w3 w2 hn2"/> <!-- 44 -->
    <route id="130" edges="w6 w5 w4 w3 w2 hs2"/> <!-- 25 -->
    <route id="131" edges="w6 w5 w4 w3 w2 w1"/> <!-- 198 -->

    <flow id="0" begin="0.00" end="4400.00" probability="0.0475" route="0" departLane="best" departSpeed="max"/>
    <flow id="1" begin="0.00" end="4400.00" probability="0.0048" route="1" departLane="best" departSpeed="max"/>
    <flow id="2" begin="0.00" end="4400.00" probability="0.0084" route="2" departLane="best" departSpeed="max"/>
    <flow id="3" begin="0.00" end="4400.00" probability="0.0075" route="3" departLane="best" departSpeed="max"/>
    <flow id="4" begin="0.00" end="4400.00" probability="0.0107" route="4" departLane="best" departSpeed="max"/>
    <flow id="5" begin="0.00" end="4400.00" probability="0.0109" route="5" departLane="best" departSpeed="max"/>
    <flow id="6" begin="0.00" end="4400.00" probability="0.0173" route="6" departLane="best" departSpeed="max"/>
    <flow id="7" begin="0.00" end="4400.00" probability="0.0157" route="7" departLane="best" departSpeed="max"/>
    <flow id="8" begin="0.00" end="4400.00" probability="0.0218" route="8" departLane="best" departSpeed="max"/>
    <flow id="9" begin="0.00" end="4400.00" probability="0.0195" route="9" departLane="best" departSpeed="max"/>
    <flow id="10" begin="0.00" end="4400.00" probability="0.0291" route="10" departLane="best" departSpeed="max"/>
    <flow id="11" begin="0.00" end="4400.00" probability="0.0064" route="11" departLane="best" departSpeed="max"/>
    <flow id="12" begin="0.00" end="4400.00" probability="0.0011" route="12" departLane="best" departSpeed="max"/>
    <flow id="13" begin="0.00" end="4400.00" probability="0.0011" route="13" departLane="best" departSpeed="max"/>
    <flow id="14" begin="0.00" end="4400.00" probability="0.0009" route="14" departLane="best" departSpeed="max"/>
    <flow id="15" begin="0.00" end="4400.00" probability="0.0018" route="15" departLane="best" departSpeed="max"/>
    <flow id="16" begin="0.00" end="4400.00" probability="0.0016" route="16" departLane="best" departSpeed="max"/>
    <flow id="17" begin="0.00" end="4400.00" probability="0.0020" route="17" departLane="best" departSpeed="max"/>
    <flow id="18" begin="0.00" end="4400.00" probability="0.0018" route="18" departLane="best" departSpeed="max"/>
    <flow id="19" begin="0.00" end="4400.00" probability="0.0027" route="19" departLane="best" departSpeed="max"/>
    <flow id="20" begin="0.00" end="4400.00" probability="0.1443" route="20" departLane="best" departSpeed="max"/>
    <flow id="21" begin="0.00" end="4400.00" probability="0.0293" route="21" departLane="best" departSpeed="max"/>
    <flow id="22" begin="0.00" end="4400.00" probability="0.0080" route="22" departLane="best" departSpeed="max"/>
    <flow id="23" begin="0.00" end="4400.00" probability="0.0009" route="23" departLane="best" departSpeed="max"/>
    <flow id="24" begin="0.00" end="4400.00" probability="0.0023" route="24" departLane="best" departSpeed="max"/>
    <flow id="25" begin="0.00" end="4400.00" probability="0.0018" route="25" departLane="best" departSpeed="max"/>
    <flow id="26" begin="0.00" end="4400.00" probability="0.0034" route="26" departLane="best" departSpeed="max"/>
    <flow id="27" begin="0.00" end="4400.00" probability="0.0011" route="27" departLane="best" departSpeed="max"/>
    <flow id="28" begin="0.00" end="4400.00" probability="0.0020" route="28" departLane="best" departSpeed="max"/>
    <flow id="29" begin="0.00" end="4400.00" probability="0.1443" route="29" departLane="best" departSpeed="max"/>
    <flow id="30" begin="0.00" end="4400.00" probability="0.0032" route="30" departLane="best" departSpeed="max"/>
    <flow id="31" begin="0.00" end="4400.00" probability="0.0039" route="31" departLane="best" departSpeed="max"/>
    <flow id="32" begin="0.00" end="4400.00" probability="0.0223" route="32" departLane="best" departSpeed="max"/>
    <flow id="33" begin="0.00" end="4400.00" probability="0.0107" route="33" departLane="best" departSpeed="max"/>
    <flow id="34" begin="0.00" end="4400.00" probability="0.0018" route="34" departLane="best" departSpeed="max"/>
    <flow id="35" begin="0.00" end="4400.00" probability="0.0016" route="35" departLane="best" departSpeed="max"/>
    <flow id="36" begin="0.00" end="4400.00" probability="0.0025" route="36" departLane="best" departSpeed="max"/>
    <flow id="37" begin="0.00" end="4400.00" probability="0.0030" route="37" departLane="best" departSpeed="max"/>
    <flow id="38" begin="0.00" end="4400.00" probability="0.1443" route="38" departLane="best" departSpeed="max"/>
    <flow id="39" begin="0.00" end="4400.00" probability="0.0041" route="39" departLane="best" departSpeed="max"/>
    <flow id="40" begin="0.00" end="4400.00" probability="0.0032" route="40" departLane="best" departSpeed="max"/>
    <flow id="41" begin="0.00" end="4400.00" probability="0.0045" route="41" departLane="best" departSpeed="max"/>
    <flow id="42" begin="0.00" end="4400.00" probability="0.0018" route="42" departLane="best" departSpeed="max"/>
    <flow id="43" begin="0.00" end="4400.00" probability="0.0157" route="43" departLane="best" departSpeed="max"/>
    <flow id="44" begin="0.00" end="4400.00" probability="0.0143" route="44" departLane="best" departSpeed="max"/>
    <flow id="45" begin="0.00" end="4400.00" probability="0.0023" route="45" departLane="best" departSpeed="max"/>
    <flow id="46" begin="0.00" end="4400.00" probability="0.0030" route="46" departLane="best" departSpeed="max"/>
    <flow id="47" begin="0.00" end="4400.00" probability="0.1443" route="47" departLane="best" departSpeed="max"/>
    <flow id="48" begin="0.00" end="4400.00" probability="0.0048" route="48" departLane="best" departSpeed="max"/>
    <flow id="49" begin="0.00" end="4400.00" probability="0.0027" route="49" departLane="best" departSpeed="max"/>
    <flow id="50" begin="0.00" end="4400.00" probability="0.0027" route="50" departLane="best" departSpeed="max"/>
    <flow id="51" begin="0.00" end="4400.00" probability="0.0016" route="51" departLane="best" departSpeed="max"/>
    <flow id="52" begin="0.00" end="4400.00" probability="0.0032" route="52" departLane="best" departSpeed="max"/>
    <flow id="53" begin="0.00" end="4400.00" probability="0.0009" route="53" departLane="best" departSpeed="max"/>
    <flow id="54" begin="0.00" end="4400.00" probability="0.0134" route="54" departLane="best" departSpeed="max"/>
    <flow id="55" begin="0.00" end="4400.00" probability="0.0195" route="55" departLane="best" departSpeed="max"/>
    <flow id="56" begin="0.00" end="4400.00" probability="0.1443" route="56" departLane="best" departSpeed="max"/>
    <flow id="57" begin="0.00" end="4400.00" probability="0.0055" route="57" departLane="best" departSpeed="max"/>
    <flow id="58" begin="0.00" end="4400.00" probability="0.0032" route="58" departLane="best" departSpeed="max"/>
    <flow id="59" begin="0.00" end="4400.00" probability="0.0034" route="59" departLane="best" departSpeed="max"/>
    <flow id="60" begin="0.00" end="4400.00" probability="0.0020" route="60" departLane="best" departSpeed="max"/>
    <flow id="61" begin="0.00" end="4400.00" probability="0.0030" route="61" departLane="best" departSpeed="max"/>
    <flow id="62" begin="0.00" end="4400.00" probability="0.0018" route="62" departLane="best" departSpeed="max"/>
    <flow id="63" begin="0.00" end="4400.00" probability="0.0007" route="63" departLane="best" departSpeed="max"/>
    <flow id="64" begin="0.00" end="4400.00" probability="0.0014" route="64" departLane="best" departSpeed="max"/>
    <flow id="65" begin="0.00" end="4400.00" probability="0.0084" route="65" departLane="best" departSpeed="max"/>
    <flow id="66" begin="0.00" end="4400.00" probability="0.0098" route="66" departLane="best" departSpeed="max"/>
    <flow id="67" begin="0.00" end="4400.00" probability="0.0020" route="67" departLane="best" departSpeed="max"/>
    <flow id="68" begin="0.00" end="4400.00" probability="0.0023" route="68" departLane="best" departSpeed="max"/>
    <flow id="69" begin="0.00" end="4400.00" probability="0.0014" route="69" departLane="best" departSpeed="max"/>
    <flow id="70" begin="0.00" end="4400.00" probability="0.0023" route="70" departLane="best" departSpeed="max"/>
    <flow id="71" begin="0.00" end="4400.00" probability="0.0018" route="71" departLane="best" departSpeed="max"/>
    <flow id="72" begin="0.00" end="4400.00" probability="0.0032" route="72" departLane="best" departSpeed="max"/>
    <flow id="73" begin="0.00" end="4400.00" probability="0.0020" route="73" departLane="best" departSpeed="max"/>
    <flow id="74" begin="0.00" end="4400.00" probability="0.0045" route="74" departLane="best" departSpeed="max"/>
    <flow id="75" begin="0.00" end="4400.00" probability="0.1443" route="75" departLane="best" departSpeed="max"/>
    <flow id="76" begin="0.00" end="4400.00" probability="0.0195" route="76" departLane="best" departSpeed="max"/>
    <flow id="77" begin="0.00" end="4400.00" probability="0.0100" route="77" departLane="best" departSpeed="max"/>
    <flow id="78" begin="0.00" end="4400.00" probability="0.0025" route="78" departLane="best" departSpeed="max"/>
    <flow id="79" begin="0.00" end="4400.00" probability="0.0030" route="79" departLane="best" departSpeed="max"/>
    <flow id="80" begin="0.00" end="4400.00" probability="0.0018" route="80" departLane="best" departSpeed="max"/>
    <flow id="81" begin="0.00" end="4400.00" probability="0.0036" route="81" departLane="best" departSpeed="max"/>
    <flow id="82" begin="0.00" end="4400.00" probability="0.0041" route="82" departLane="best" departSpeed="max"/>
    <flow id="83" begin="0.00" end="4400.00" probability="0.0043" route="83" departLane="best" departSpeed="max"/>
    <flow id="84" begin="0.00" end="4400.00" probability="0.1443" route="84" departLane="best" departSpeed="max"/>
    <flow id="85" begin="0.00" end="4400.00" probability="0.0020" route="85" departLane="best" departSpeed="max"/>
    <flow id="86" begin="0.00" end="4400.00" probability="0.0030" route="86" departLane="best" departSpeed="max"/>
    <flow id="87" begin="0.00" end="4400.00" probability="0.0145" route="87" departLane="best" departSpeed="max"/>
    <flow id="88" begin="0.00" end="4400.00" probability="0.0157" route="88" departLane="best" departSpeed="max"/>
    <flow id="89" begin="0.00" end="4400.00" probability="0.0016" route="89" departLane="best" departSpeed="max"/>
    <flow id="90" begin="0.00" end="4400.00" probability="0.0036" route="90" departLane="best" departSpeed="max"/>
    <flow id="91" begin="0.00" end="4400.00" probability="0.0039" route="91" departLane="best" departSpeed="max"/>
    <flow id="92" begin="0.00" end="4400.00" probability="0.0045" route="92" departLane="best" departSpeed="max"/>
    <flow id="93" begin="0.00" end="4400.00" probability="0.1443" route="93" departLane="best" departSpeed="max"/>
    <flow id="94" begin="0.00" end="4400.00" probability="0.0020" route="94" departLane="best" departSpeed="max"/>
    <flow id="95" begin="0.00" end="4400.00" probability="0.0018" route="95" departLane="best" departSpeed="max"/>
    <flow id="96" begin="0.00" end="4400.00" probability="0.0018" route="96" departLane="best" departSpeed="max"/>
    <flow id="97" begin="0.00" end="4400.00" probability="0.0014" route="97" departLane="best" departSpeed="max"/>
    <flow id="98" begin="0.00" end="4400.00" probability="0.0125" route="98" departLane="best" departSpeed="max"/>
    <flow id="99" begin="0.00" end="4400.00" probability="0.0225" route="99" departLane="best" departSpeed="max"/>
    <flow id="100" begin="0.00" end="4400.00" probability="0.0027" route="100" departLane="best" departSpeed="max"/>
    <flow id="101" begin="0.00" end="4400.00" probability="0.0041" route="101" departLane="best" departSpeed="max"/>
    <flow id="102" begin="0.00" end="4400.00" probability="0.1443" route="102" departLane="best" departSpeed="max"/>
    <flow id="103" begin="0.00" end="4400.00" probability="0.0025" route="103" departLane="best" departSpeed="max"/>
    <flow id="104" begin="0.00" end="4400.00" probability="0.0025" route="104" departLane="best" departSpeed="max"/>
    <flow id="105" begin="0.00" end="4400.00" probability="0.0020" route="105" departLane="best" departSpeed="max"/>
    <flow id="106" begin="0.00" end="4400.00" probability="0.0018" route="106" departLane="best" departSpeed="max"/>
    <flow id="107" begin="0.00" end="4400.00" probability="0.0020" route="107" departLane="best" departSpeed="max"/>
    <flow id="108" begin="0.00" end="4400.00" probability="0.0007" route="108" departLane="best" departSpeed="max"/>
    <flow id="109" begin="0.00" end="4400.00" probability="0.0080" route="109" departLane="best" departSpeed="max"/>
    <flow id="110" begin="0.00" end="4400.00" probability="0.0293" route="110" departLane="best" departSpeed="max"/>
    <flow id="111" begin="0.00" end="4400.00" probability="0.1443" route="111" departLane="best" departSpeed="max"/>
    <flow id="112" begin="0.00" end="4400.00" probability="0.0025" route="112" departLane="best" departSpeed="max"/>
    <flow id="113" begin="0.00" end="4400.00" probability="0.0025" route="113" departLane="best" departSpeed="max"/>
    <flow id="114" begin="0.00" end="4400.00" probability="0.0023" route="114" departLane="best" departSpeed="max"/>
    <flow id="115" begin="0.00" end="4400.00" probability="0.0020" route="115" departLane="best" departSpeed="max"/>
    <flow id="116" begin="0.00" end="4400.00" probability="0.0011" route="116" departLane="best" departSpeed="max"/>
    <flow id="117" begin="0.00" end="4400.00" probability="0.0009" route="117" departLane="best" departSpeed="max"/>
    <flow id="118" begin="0.00" end="4400.00" probability="0.0018" route="118" departLane="best" departSpeed="max"/>
    <flow id="119" begin="0.00" end="4400.00" probability="0.0011" route="119" departLane="best" departSpeed="max"/>
    <flow id="120" begin="0.00" end="4400.00" probability="0.0052" route="120" departLane="best" departSpeed="max"/>
    <flow id="121" begin="0.00" end="4400.00" probability="0.0286" route="121" departLane="best" departSpeed="max"/>
    <flow id="122" begin="0.00" end="4400.00" probability="0.0195" route="122" departLane="best" departSpeed="max"/>
    <flow id="123" begin="0.00" end="4400.00" probability="0.0211" route="123" departLane="best" departSpeed="max"/>
    <flow id="124" begin="0.00" end="4400.00" probability="0.0136" route="124" departLane="best" departSpeed="max"/>
    <flow id="125" begin="0.00" end="4400.00" probability="0.0164" route="125" departLane="best" departSpeed="max"/>
    <flow id="126" begin="0.00" end="4400.00" probability="0.0102" route="126" departLane="best" departSpeed="max"/>
    <flow id="127" begin="0.00" end="4400.00" probability="0.0143" route="127" departLane="best" departSpeed="max"/>
    <flow id="128" begin="0.00" end="4400.00" probability="0.0086" route="128" departLane="best" departSpeed="max"/>
    <flow id="129" begin="0.00" end="4400.00" probability="0.0100" route="129" departLane="best" departSpeed="max"/>
    <flow id="130" begin="0.00" end="4400.00" probability="0.0057" route="130" departLane="best" departSpeed="max"/>
    <flow id="131" begin="0.00" end="4400.00" probability="0.0450" route="131" departLane="best" departSpeed="max"/>
</routes>
